3
Lattice="3.8386554893879574 -2.2162594832426348 7.059664030583256e-09 3.8386555034170575 2.216259507541749 -7.0596640692018536e-09 -1.3623135791487536e-17 -8.6269094689687e-09 2.743166781076044" Properties=species:S:1:pos:R:3 pbc="T T T" n_minim_iter=0
Ti       1.27955439       0.00000000      -0.00000000 
Ti       3.83865550       0.00000001       1.37158339 
Ti       6.39775660       0.00000002       1.37158339 
