3
Lattice="3.616897209916737 -2.088232828175213 -2.1106226883520266e-07 3.61689716971227 2.0882327585395455 -9.914834507004633e-08 -1.1084082084003651e-07 6.94601301291908e-08 2.6144853769603595" Properties=species:S:1:pos:R:3 pbc="T T T" n_minim_iter=0
Ti       1.20563481      -0.00000001      -0.00000005 
Ti       3.61689713      -0.00000000       1.30724253 
Ti       6.02815952      -0.00000002       1.30724243 
