3
Lattice="3.6885374850498143 -2.12959468218152 -2.152428020746069e-07 3.688537444049013 2.1295946111665716 -1.0111218708920366e-07 -1.1303625699431392e-07 7.08359344566102e-08 2.6662707722498094" Properties=species:S:1:pos:R:3 pbc="T T T" n_minim_iter=0
Ti       1.22951495      -0.00000001      -0.00000005 
Ti       3.68853741      -0.00000000       1.33313523 
Ti       6.14755993      -0.00000002       1.33313512 
