2
Lattice="3.1100486318559026 1.1177567839157794e-13 5.728268168317043e-16 1.1177567839157794e-13 3.11004863185591 7.261027340639525e-14 5.728268168317042e-16 7.261027340639524e-14 3.1100486318556926" Properties=species:S:1:pos:R:3 energy=-3187.10401622 pbc="T T T" n_minim_iter=0
Ti       0.00000000       0.00000000      -0.00000000 
Ti       1.55502432       1.55502432       1.55502432 
