8
Lattice="4.37251782934528 -1.6071099565181848e-08 4.6519411796687635e-08 -1.6071099565181845e-08 4.372523020097012 3.784330720983113e-08 4.651941179668763e-08 3.784330720983113e-08 4.372533368522976" Properties=species:S:1:pos:R:3 pbc="T T T" n_minim_iter=0
Ni      -0.00002186       0.00000000       0.00000437 
O      -0.00001747       0.00000002       2.18627106 
O      -0.00001750       2.18626151       0.00000439 
Ni      -0.00001747       2.18626153       2.18627108 
O       2.18624142      -0.00000001       0.00000877 
Ni       2.18624145       0.00000001       2.18627108 
Ni       2.18624142       2.18626150       0.00000441 
O       2.18624144       2.18626152       2.18627110 
