8
Lattice="6.003168722269397 0.0001916221288800942 -1.3445100821418816e-07 -3.0014184115031597 5.1989868088893925 -4.921456720975747e-08 -1.0883740611693711e-07 -1.0883935280995428e-07 4.862931315283347" Properties=species:S:1:pos:R:3:tags:I:1 spacegroup="P 1" unit_cell=conventional pbc="T T T" n_minim_iter=0
Ti       3.00144786       3.43540002       1.21574727        0 
Ti      -1.47401840       4.31713589       3.64721301        1 
Ti       1.47440789       4.31698045       3.64721295        2 
Ti       1.52733331       0.88220307       1.21574736        3 
Ti       4.47578061       0.88206322       1.21574730        4 
Ti       0.00032036       1.76383030       3.64721304        5 
Al       0.00044978       3.46586963       1.21574734        6 
Al       3.00127941       1.73333469       3.64721297        7 
