8
Lattice="5.656873605382852 0.00018056833202903798 -1.266951496403107e-07 -2.8282804259287686 4.899081237687097 -4.637560580572401e-08 -1.0255907811774587e-07 -1.0256091251502105e-07 4.582411235614376" Properties=species:S:1:pos:R:3:tags:I:1 spacegroup="P 1" unit_cell=conventional pbc="T T T" n_minim_iter=0
Ti       2.82830817       3.23722763       1.14561642        0 
Ti      -1.38898908       4.06810024       3.43682211        1 
Ti       1.38935610       4.06795376       3.43682205        2 
Ti       1.43922849       0.83131284       1.14561651        3 
Ti       4.21759347       0.83118107       1.14561644        4 
Ti       0.00030188       1.66208306       3.43682214        5 
Al       0.00042383       3.26593960       1.14561648        6 
Al       2.82814945       1.63334660       3.43682207        7 
