2
Lattice="2.7934215459188745 -2.8566245470969164e-14 5.970390518949147e-14 -1.3967107729594614 2.419174023442146 2.948379602162635e-14 9.480980144091249e-14 1.0880185314546768e-13 4.409963613956208" Properties=species:S:1:pos:R:3 energy=-3187.22835972 pbc="T T T" n_minim_iter=0
Ti      -0.00000000      -0.00000000      -0.00000000 
Ti       0.00000000       1.61278268       2.20498181 
