4
Lattice="4.762003103537903 -0.19361681649345644 -4.803963549045696e-11 1.8689738031481284 4.384187262524229 1.578761030244485e-11 -3.3154884533695514 -2.095285222994403 2.707670064795179" Properties=species:S:1:pos:R:3:tags:I:1 spacegroup="P 1" energy=-1923.20997098 unit_cell=conventional pbc="T T T" n_minim_iter=0
Ti      -0.00000000       0.00000000      -0.00000000        0 
Al       3.31548845       2.09528522      -0.00000000        1 
Al       2.38100155      -0.09680841       1.35383503        2 
Al       0.93448690       2.19209363       1.35383503        3 
