4
Lattice="4.7148514609439784 -0.19169969238980133 -4.7563964292068714e-11 1.8504678965228312 4.340776616547582 1.5631287061529702e-11 -3.2826596787596776 -2.074538462058115 2.6808596893330883" Properties=species:S:1:pos:R:3:tags:I:1 spacegroup="P 1" energy=-1922.95758014 unit_cell=conventional pbc="T T T" n_minim_iter=0
Ti      -0.00000000       0.00000000      -0.00000000        0 
Al       3.28265968       2.07453846      -0.00000000        1 
Al       2.35742573      -0.09584984       1.34042984        2 
Al       0.92523395       2.17038831       1.34042984        3 
