4
Lattice="5.378923839285891 -0.21870000654757138 -5.4263202890028686e-11 2.111100628490859 4.952161699509363 1.783290593785733e-11 -3.745012233918348 -2.3667308464571946 3.058450560359161" Properties=species:S:1:pos:R:3:tags:I:1 spacegroup="P 1" energy=-1922.89700295 unit_cell=conventional pbc="T T T" n_minim_iter=0
Ti      -0.00000000       0.00000000      -0.00000000        0 
Al       3.74501223       2.36673085      -0.00000000        1 
Al       2.68946192      -0.10935000       1.52922528        2 
Al       1.05555031       2.47608085       1.52922528        3 
