2
Lattice="3.32 0.0 0.0 0.0 3.32 0.0 0.0 0.0 3.32" Properties=species:S:1:pos:R:3 energy=-3186.98674889 pbc="T T T" n_minim_iter=1
Ti       0.00000000       0.00000000       0.00000000 
Ti       1.66000000       1.66000000       1.66000000 
2
Lattice="3.0929949787320936 -1.3561519982225596e-16 1.1940902892809248e-16 -1.3561519982225596e-16 3.0929949787320936 -1.3191301864507974e-15 1.1940902892809248e-16 -1.3191301864507974e-15 3.0929949787320936" Properties=species:S:1:pos:R:3 stress="-0.052169973498555525 1.804632892733884e-12 -1.2662232979606495e-12 1.804632892733884e-12 -0.05216997350009781 1.2360065614337987e-11 -1.2662232979606495e-12 1.2360065614337987e-11 -0.05216997349978017" pbc="T T T" n_minim_iter=2
Ti       0.00000000       0.00000000       0.00000000 
Ti       1.54649749       1.54649749       1.54649749 
2
Lattice="3.164510773305591 -2.502352739102954e-12 1.7558042597577243e-12 -2.502352739102954e-12 3.164510773307729 -1.7139200326260676e-11 1.7558042597577239e-12 -1.7139200326260676e-11 3.1645107733072892" Properties=species:S:1:pos:R:3 stress="0.013945882645290973 -1.4978219545142155e-12 2.885095608344907e-12 -1.4978219545142155e-12 0.013945882648837886 -9.901026251428057e-13 2.885095608344907e-12 -9.901026251428057e-13 0.013945882657861997" pbc="T T T" n_minim_iter=3
Ti       0.00000000       0.00000000       0.00000000 
Ti       1.58225539       1.58225539       1.58225539 
2
Lattice="3.1484517107472847 -2.1344627575178526e-13 -2.960871603813304e-12 -2.1344627575178526e-13 3.1484517107436223 -1.7181578267440832e-11 -2.9608716038133044e-12 -1.7181578267440832e-11 3.1484517107278327" Properties=species:S:1:pos:R:3 stress="0.001472177851883459 4.925517767005912e-12 2.7025966108148e-12 4.925517767005912e-12 0.0014721778277640848 1.0186747837069698e-11 2.7025966108148e-12 1.0186747837069698e-11 0.0014721778436721626" pbc="T T T" n_minim_iter=4
Ti       0.00000000       0.00000000      -0.00000000 
Ti       1.57422586       1.57422586       1.57422586 
