2
Lattice="3.2252733256542063 -2.186543237403086e-13 -3.033116300265389e-12 -2.186543237403086e-13 3.2252733256504547 -1.7600805465574096e-11 -3.0331163002653895e-12 -1.7600805465574096e-11 3.2252733256342796" Properties=species:S:1:pos:R:3 energy=-3187.20667461 pbc="T T T" n_minim_iter=0
Ti       0.00000000       0.00000000      -0.00000000 
Ti       1.61263666       1.61263666       1.61263666 
