2
Lattice="3.368803913663302 -2.2838484282765197e-13 -3.1680955476408846e-12 -2.2838484282765197e-13 3.3688039136593835 -1.8384073642510736e-11 -3.168095547640885e-12 -1.8384073642510736e-11 3.3688039136424885" Properties=species:S:1:pos:R:3 energy=-3186.83014846 pbc="T T T" n_minim_iter=0
Ti       0.00000000       0.00000000      -0.00000000 
Ti       1.68440196       1.68440196       1.68440196 
