2
Lattice="2.982428301904542 -2.0219087736529123e-13 -2.804739624678046e-12 -2.0219087736529123e-13 2.9824283019010727 -1.6275563357470417e-11 -2.8047396246780464e-12 -1.6275563357470417e-11 2.9824283018861157" Properties=species:S:1:pos:R:3 energy=-3186.88695096 pbc="T T T" n_minim_iter=0
Ti       0.00000000       0.00000000      -0.00000000 
Ti       1.49121415       1.49121415       1.49121415 
