2
Lattice="2.9528973691655582 -2.001888559936131e-13 -2.7769681013345216e-12 -2.001888559936131e-13 2.952897369162123 -1.6114408580843733e-11 -2.776968101334522e-12 -1.6114408580843733e-11 2.952897369147314" Properties=species:S:1:pos:R:3 energy=-3186.72852978 pbc="T T T" n_minim_iter=0
Ti       0.00000000       0.00000000      -0.00000000 
Ti       1.47644868       1.47644868       1.47644868 
