2
Lattice="3.250084095479004 -2.2033634617678447e-13 -3.056448881035877e-12 -2.2033634617678447e-13 3.2500840954752235 -1.7736201597636428e-11 -3.0564488810358773e-12 -1.7736201597636428e-11 3.250084095458924" Properties=species:S:1:pos:R:3 energy=-3187.16081438 pbc="T T T" n_minim_iter=0
Ti       0.00000000       0.00000000      -0.00000000 
Ti       1.62504205       1.62504205       1.62504205 
