54
Lattice="8.290105092730638 0.0 0.0 0.0 8.290105092730638 0.0 0.0 0.0 11.953212538141175" Properties=species:S:1:pos:R:3:force:R:3 virial="3.1369328059954196 2.5636830265309856e-05 0.0007127038813756138 2.5636830265309856e-05 3.134528071316534 -7.178312474286759e-05 0.0007127038813756138 -7.178312474286759e-05 4.826620397219621" energy=-46015.9603283 pbc="T T T"
Ti       1.38168695       1.38168695       1.99220607       0.00837981       0.00786111       0.01109000 
Ti       4.14505255       1.38168695       1.99220607       0.00070981      -0.00034889       0.00080000 
Ti       6.90841815       1.38168695       1.99220607      -0.00207019       0.00259111       0.00318000 
Ti       1.38168695       4.14505255       1.99220607      -0.00042019      -0.00029889       0.00057000 
Ti       4.14505255       4.14505255       1.99220607       0.00029981      -0.00001889       0.00044000 
Ti       6.90841815       4.14505255       1.99220607       0.00006981       0.00000111       0.00089000 
Ti       1.38168695       6.90841815       1.99220607       0.00842981      -0.00750889       0.01101000 
Ti       4.14505255       6.90841815       1.99220607       0.00111981       0.00035111       0.00054000 
Ti       6.90841815       6.90841815       1.99220607      -0.00242019      -0.00262889       0.00317000 
Ti       1.38168695       1.38168695       5.97660627      -0.00063019       0.00107111      -0.00084000 
Ti       4.14505255       1.38168695       5.97660627       0.00060981       0.00045111      -0.00187000 
Ti       6.90841815       1.38168695       5.97660627      -0.00006019      -0.00052889      -0.00045000 
Ti       1.38168695       4.14505255       5.97660627       0.00007981      -0.00116889      -0.00174000 
Ti       4.14505255       4.14505255       5.97660627      -0.00064019      -0.00134889       0.00018000 
Ti       6.90841815       4.14505255       5.97660627       0.00066981      -0.00103889      -0.00213000 
Ti       1.38168695       6.90841815       5.97660627      -0.00089019       0.00010111      -0.00074000 
Ti       4.14505255       6.90841815       5.97660627       0.00072981       0.00081111      -0.00204000 
Ti       6.90841815       6.90841815       5.97660627       0.00016981       0.00153111      -0.00080000 
Ti       1.38168695       1.38168695       9.96100646      -0.00230019      -0.00182889       0.00331000 
Ti       4.14505255       1.38168695       9.96100646       0.00062981       0.00001111       0.00070000 
Ti       6.90841815       1.38168695       9.96100646       0.00850981      -0.00762889       0.01048000 
Ti       1.38168695       4.14505255       9.96100646       0.00008981      -0.00047889       0.00082000 
Ti       4.14505255       4.14505255       9.96100646      -0.00114019      -0.00039889       0.00043000 
Ti       6.90841815       4.14505255       9.96100646       0.00104981      -0.00051889       0.00077000 
Ti       1.38168695       6.90841815       9.96100646      -0.00220019       0.00238111       0.00342000 
Ti       4.14505255       6.90841815       9.96100646       0.00051981       0.00044111       0.00104000 
Ti       6.90841815       6.90841815       9.96100646       0.00849981       0.00816111       0.01080000 
Al       0.00569530       0.00000000       0.00821186      -0.04333019       0.00008111      -0.07459000 
Al       2.76336560       0.00000000       0.00000000       0.00742981       0.00007111       0.00181000 
Al       5.52673949       0.00000000       0.00000000       0.00716981       0.00008111       0.00162000 
Al       0.00000000       2.76336560       0.00000000       0.00047981      -0.00003889       0.00182000 
Al       2.76336560       2.76336560       0.00000000      -0.00003019       0.00000111      -0.00012000 
Al       5.52673949       2.76336560       0.00000000       0.00003981      -0.00003889       0.00000000 
Al       0.00000000       5.52673949       0.00000000       0.00046981      -0.00003889       0.00179000 
Al       2.76336560       5.52673949       0.00000000       0.00000981      -0.00004889      -0.00010000 
Al       5.52673949       5.52673949       0.00000000       0.00000981      -0.00002889      -0.00007000 
Al       0.00000000       0.00000000       3.98440019      -0.00014019       0.00007111       0.00136000 
Al       2.76336560       0.00000000       3.98440019       0.00039981       0.00007111       0.00096000 
Al       5.52673949       0.00000000       3.98440019      -0.00013019       0.00007111       0.00063000 
Al       0.00000000       2.76336560       3.98440019      -0.00018019       0.00024111       0.00068000 
Al       2.76336560       2.76336560       3.98440019       0.00011981       0.00001111       0.00066000 
Al       5.52673949       2.76336560       3.98440019      -0.00000019       0.00009111       0.00040000 
Al       0.00000000       5.52673949       3.98440019      -0.00024019      -0.00031889       0.00078000 
Al       2.76336560       5.52673949       3.98440019       0.00015981      -0.00009889       0.00072000 
Al       5.52673949       5.52673949       3.98440019       0.00001981      -0.00016889       0.00057000 
Al       0.00000000       0.00000000       7.96881234      -0.00023019       0.00008111       0.00150000 
Al       2.76336560       0.00000000       7.96881234      -0.00012019       0.00009111       0.00065000 
Al       5.52673949       0.00000000       7.96881234       0.00046981       0.00011111       0.00119000 
Al       0.00000000       2.76336560       7.96881234      -0.00006019      -0.00031889       0.00099000 
Al       2.76336560       2.76336560       7.96881234      -0.00013019      -0.00003889       0.00073000 
Al       5.52673949       2.76336560       7.96881234       0.00010981      -0.00020889       0.00087000 
Al       0.00000000       5.52673949       7.96881234      -0.00011019       0.00022111       0.00079000 
Al       2.76336560       5.52673949       7.96881234      -0.00010019      -0.00009889       0.00057000 
Al       5.52673949       5.52673949       7.96881234       0.00011981       0.00013111       0.00076000 
