2
Lattice="2.969103246217507 0.0 0.0 0.0 2.969103246217507 0.0 0.0 0.0 2.969103246217507" Properties=species:S:1:pos:R:3 energy=-3186.30367387 Minim_Constant_Volume=F pbc="T T T" n_minim_iter=0
Ti       0.00000000       0.00000000       0.00000000 
Ti       1.48455163       1.48455163       1.48455163 
