2
Lattice="2.9972523529499635 2.0637856599354092e-16 2.345154011401178e-16 2.0637856599354095e-16 2.9972523529499635 2.2910843087860594e-16 3.3753613573006194e-16 3.297539268038872e-16 2.9969320774749035" Properties=species:S:1:pos:R:3:tags:I:1 spacegroup="P 1" energy=-1703.94071404 unit_cell=conventional pbc="T T T" n_minim_iter=0
Ti       1.49862618       1.49862618       1.49846604        0 
Al      -0.00000000       0.00000000       0.00000000        1 
