2
Lattice="2.9406868662154695 2.0248369740648257e-16 2.300895216177714e-16 2.024836974064826e-16 2.9406868662154695 2.2478459411695673e-16 3.311660028350925e-16 3.235306632358682e-16 2.9403726351223978" Properties=species:S:1:pos:R:3:tags:I:1 spacegroup="P 1" energy=-1703.51589563 unit_cell=conventional pbc="T T T" n_minim_iter=0
Ti       1.47034343       1.47034343       1.47018632        0 
Al      -0.00000000       0.00000000       0.00000000        1 
