2
Lattice="3.1801330823777785 2.1897098673182745e-16 2.488246225776619e-16 2.189709867318275e-16 3.1801330823777785 2.4308773993341505e-16 3.5813128336579726e-16 3.4987423419349586e-16 3.1797932649337417" Properties=species:S:1:pos:R:3:tags:I:1 spacegroup="P 1" energy=-1704.13199846 unit_cell=conventional pbc="T T T" n_minim_iter=0
Ti       1.59006654       1.59006654       1.58989663        0 
Al      -0.00000000       0.00000000       0.00000000        1 
