2
Lattice="3.2518944496350697 -1.459160822538267e-13 -3.0512621431075278e-18 -1.459160822538267e-13 3.2518944496350697 6.4459998376901364e-18 -3.051262143107527e-18 6.4459998376901364e-18 3.251894449635131" Properties=species:S:1:pos:R:3 energy=-3187.13648764 pbc="T T T" n_minim_iter=0
Ti      -0.00000000       0.00000000       0.00000000 
Ti       1.62594722       1.62594722       1.62594722 
