4
Lattice="5.3892546956335226 0.0043085218953789126 0.001196411264741043 2.3169580757524657 4.865776957627174 0.0011961273349223192 -3.852467228639898 -2.43463898039063 2.8727266855849294" Properties=species:S:1:pos:R:3:tags:I:1 spacegroup="P 1" unit_cell=conventional pbc="T T T" n_minim_iter=0
Ti      -0.00002695      -0.00000002      -0.00000001        0 
Al       3.85307944       2.43504272       0.00119626        1 
Al       2.69495685       0.00229778       1.43755968        2 
Al       1.15873480       2.43314867       1.43755954        3 
