4
Lattice="4.595427709540656 0.0036738847991780407 0.0010201821566258819 1.975674549540888 4.14905724861011 0.0010199400491304647 -3.285006119108266 -2.0760212803228257 2.4495794981762313" Properties=species:S:1:pos:R:3:tags:I:1 spacegroup="P 1" unit_cell=conventional pbc="T T T" n_minim_iter=0
Ti      -0.00002298      -0.00000002      -0.00000001        0 
Al       3.28552815       2.07636555       0.00102006        1 
Al       2.29799482       0.00195932       1.22580987        2 
Al       0.98805537       2.07475049       1.22580974        3 
