4
Lattice="4.692201859760243 0.0037512523701458043 0.0010416659591175816 2.0172798663311715 4.236431376727293 0.0010414187531310962 -3.3541843753525846 -2.1197397779120526 2.5011646800819705" Properties=species:S:1:pos:R:3:tags:I:1 spacegroup="P 1" unit_cell=conventional pbc="T T T" n_minim_iter=0
Ti      -0.00002346      -0.00000002      -0.00000001        0 
Al       3.35471740       2.12009130       0.00104154        1 
Al       2.34638781       0.00200058       1.25162394        2 
Al       1.00886262       2.11844223       1.25162382        3 
