4
Lattice="4.739126991315855 0.00378876738254904 0.0010520833097835422 2.0374540033229915 4.278798501079741 0.0010518336315731875 -3.387728444380177 -2.1409385819948907 2.5261779862360867" Properties=species:S:1:pos:R:3:tags:I:1 spacegroup="P 1" unit_cell=conventional pbc="T T T" n_minim_iter=0
Ti      -0.00002370      -0.00000002      -0.00000001        0 
Al       3.38826680       2.14129362       0.00105195        1 
Al       2.36985325       0.00202059       1.26414101        2 
Al       1.01895191       2.13962806       1.26414088        3 
