4
Lattice="4.644318907876035 0.003712971613666501 0.001031035972921209 1.9966939415002534 4.193199468587913 0.0010307912896208122 -3.3199556158371153 -2.098108270822971 2.4756408105617944" Properties=species:S:1:pos:R:3:tags:I:1 spacegroup="P 1" unit_cell=conventional pbc="T T T" n_minim_iter=0
Ti      -0.00002322      -0.00000002      -0.00000001        0 
Al       3.32048320       2.09845620       0.00103091        1 
Al       2.32244341       0.00198017       1.23885137        2 
Al       0.99856738       2.09682396       1.23885125        3 
