4
Lattice="5.084970887196577 0.004065257561978215 0.0011288604443303418 2.186139833324637 4.591049332512123 0.0011285925455310167 -3.634952290784232 -2.2971763324065715 2.710529078335737" Properties=species:S:1:pos:R:3:tags:I:1 spacegroup="P 1" unit_cell=conventional pbc="T T T" n_minim_iter=0
Ti      -0.00002542      -0.00000002      -0.00000001        0 
Al       3.63552994       2.29755727       0.00112872        1 
Al       2.54279634       0.00216805       1.35639333        2 
Al       1.09331124       2.29577017       1.35639319        3 
