4
Lattice="5.044289377318131 0.004032734108189629 0.0011198291738794052 2.168649965398551 4.554319364353742 0.0011195634183622921 -3.6058714266444682 -2.2787981344320984 2.688843916724729" Properties=species:S:1:pos:R:3:tags:I:1 spacegroup="P 1" unit_cell=conventional pbc="T T T" n_minim_iter=0
Ti      -0.00002522      -0.00000002      -0.00000001        0 
Al       3.60644445       2.27917603       0.00111969        1 
Al       2.52245310       0.00215070       1.34554172        2 
Al       1.08456438       2.27740322       1.34554158        3 
