2
Lattice="3.3955659185694858 1.4895138972509529e-12 3.0520977270280886e-13 1.4895138972509529e-12 3.3955659185728506 -4.361882442309983e-13 3.052097727028088e-13 -4.3618824423099823e-13 3.395565918573114" Properties=species:S:1:pos:R:3 energy=-3186.69790295 pbc="T T T" n_minim_iter=0
Ti      -0.00000000       0.00000000       0.00000000 
Ti       1.69778296       1.69778296       1.69778296 
