2
Lattice="2.945982291887129 1.2922975639565086e-12 2.647990371137219e-13 1.2922975639565086e-12 2.9459822918900493 -3.784355463124735e-13 2.6479903711372184e-13 -3.7843554631247347e-13 2.945982291890277" Properties=species:S:1:pos:R:3 energy=-3186.60072738 pbc="T T T" n_minim_iter=0
Ti      -0.00000000       0.00000000       0.00000000 
Ti       1.47299115       1.47299115       1.47299115 
