2
Lattice="2.9856556489010218 6.707601428206491e-13 -8.273440961505156e-13 -1.4928278244499296 2.5856536392460043 8.36246721586625e-13 -1.3138224246870193e-12 7.748601583783113e-13 4.708361807953667" Properties=species:S:1:pos:R:3 energy=-3187.10628818 pbc="T T T" n_minim_iter=0
Ti       0.00000000      -0.00000000       0.00000000 
Ti      -0.00000000       1.72376909       2.35418090 
