2
Lattice="2.8852505360713305 -6.863785592168235e-18 -4.0949907484847205e-17 -6.863785592168256e-18 2.8852505360713256 -1.3558400349583175e-16 -4.343992897820132e-17 -1.6130474706191952e-16 2.942124656652142" Properties=species:S:1:pos:R:3:tags:I:1 spacegroup="P 1" energy=-1702.96530776 unit_cell=conventional pbc="T T T" n_minim_iter=0
Ti       1.44262527       1.44262527       1.47106233        0 
Al       0.00000000       0.00000000       0.00000000        1 
