2
Lattice="2.975472481879374 -7.07841655193849e-18 -4.22304133846825e-17 -7.078416551938512e-18 2.975472481879369 -1.398237228764908e-16 -4.479829798955003e-17 -1.663487555339938e-16 3.0341250593951283" Properties=species:S:1:pos:R:3:tags:I:1 spacegroup="P 1" energy=-1703.75378923 unit_cell=conventional pbc="T T T" n_minim_iter=0
Ti       1.48773624       1.48773624       1.51706253        0 
Al       0.00000000       0.00000000       0.00000000        1 
