2
Lattice="3.186607923243066 -2.00010522103409e-17 7.276401972207857e-18 -2.0001052210340897e-17 3.186607923243064 -1.565657297053597e-17 1.0472866992007086e-17 -2.2534379889587644e-17 3.890264925917538" Properties=species:S:1:pos:R:3:tags:I:1 spacegroup="P 1" energy=-1703.38411229 unit_cell=conventional pbc="T T T" n_minim_iter=0
Ti       1.59330396       1.59330396       1.94513246        0 
Al       0.00000000       0.00000000       0.00000001        1 
