2
Lattice="3.0605316412231516 -7.280765646094012e-18 -4.3437644667484505e-17 -7.280765646094033e-18 3.0605316412231462 -1.4382083204037043e-16 -4.607893680917587e-17 -1.7110412981144906e-16 3.120860906716099" Properties=species:S:1:pos:R:3:tags:I:1 spacegroup="P 1" energy=-1704.1181893 unit_cell=conventional pbc="T T T" n_minim_iter=0
Ti       1.53026582       1.53026582       1.56043045        0 
Al       0.00000000       0.00000000       0.00000000        1 
