4
Lattice="2.82410522 0.0 0.0 0.0 5.64821044 0.0 0.0 0.0 4.06471199" Properties=species:S:1:pos:R:3 energy=-3388.15496469 pbc="F F F"
Ti       1.41205261       1.41205261       2.03235600 
Al       0.00000000       0.00000000       0.00000000 
Ti       1.41205261       4.23615783       2.03235600 
Al       0.00000000       2.82410522       0.00000000 
4
Lattice="2.8965181743589743 0.0 0.0 0.0 5.575797485641025 0.0 0.0 0.0 4.06471199" Properties=species:S:1:pos:R:3 energy=-3388.15496469 pbc="F F F"
Ti       1.41205261       1.41205261       2.03235600 
Al       0.00000000       0.00000000       0.00000000 
Ti       1.48446556       4.16374488       2.03235600 
Al       0.07241295       2.75169227       0.00000000 
4
Lattice="2.9689311287179483 0.0 0.0 0.0 5.503384531282051 0.0 0.0 0.0 4.06471199" Properties=species:S:1:pos:R:3 energy=-3388.15496469 pbc="F F F"
Ti       1.41205261       1.41205261       2.03235600 
Al       0.00000000       0.00000000       0.00000000 
Ti       1.55687852       4.09133192       2.03235600 
Al       0.14482591       2.67927931       0.00000000 
4
Lattice="3.041344083076923 0.0 0.0 0.0 5.430971576923077 0.0 0.0 0.0 4.06471199" Properties=species:S:1:pos:R:3 energy=-3388.15496469 pbc="F F F"
Ti       1.41205261       1.41205261       2.03235600 
Al       0.00000000       0.00000000       0.00000000 
Ti       1.62929147       4.01891897       2.03235600 
Al       0.21723886       2.60686636       0.00000000 
4
Lattice="3.1137570374358976 0.0 0.0 0.0 5.358558622564103 0.0 0.0 0.0 4.06471199" Properties=species:S:1:pos:R:3 energy=-3388.15496469 pbc="F F F"
Ti       1.41205261       1.41205261       2.03235600 
Al       0.00000000       0.00000000       0.00000000 
Ti       1.70170443       3.94650601       2.03235600 
Al       0.28965182       2.53445340       0.00000000 
4
Lattice="3.1861699917948716 0.0 0.0 0.0 5.286145668205128 0.0 0.0 0.0 4.06471199" Properties=species:S:1:pos:R:3 energy=-3388.15496469 pbc="F F F"
Ti       1.41205261       1.41205261       2.03235600 
Al       0.00000000       0.00000000       0.00000000 
Ti       1.77411738       3.87409306       2.03235600 
Al       0.36206477       2.46204045       0.00000000 
4
Lattice="3.258582946153846 0.0 0.0 0.0 5.213732713846154 0.0 0.0 0.0 4.06471199" Properties=species:S:1:pos:R:3 energy=-3388.15496469 pbc="F F F"
Ti       1.41205261       1.41205261       2.03235600 
Al       0.00000000       0.00000000       0.00000000 
Ti       1.84653034       3.80168010       2.03235600 
Al       0.43447773       2.38962749       0.00000000 
4
Lattice="3.3309959005128205 0.0 0.0 0.0 5.141319759487179 0.0 0.0 0.0 4.06471199" Properties=species:S:1:pos:R:3 energy=-3388.15496469 pbc="F F F"
Ti       1.41205261       1.41205261       2.03235600 
Al       0.00000000       0.00000000       0.00000000 
Ti       1.91894329       3.72926715       2.03235600 
Al       0.50689068       2.31721454       0.00000000 
4
Lattice="3.403408854871795 0.0 0.0 0.0 5.068906805128205 0.0 0.0 0.0 4.06471199" Properties=species:S:1:pos:R:3 energy=-3388.15496469 pbc="F F F"
Ti       1.41205261       1.41205261       2.03235600 
Al       0.00000000       0.00000000       0.00000000 
Ti       1.99135624       3.65685420       2.03235600 
Al       0.57930363       2.24480159       0.00000000 
4
Lattice="3.4758218092307693 0.0 0.0 0.0 4.996493850769231 0.0 0.0 0.0 4.06471199" Properties=species:S:1:pos:R:3 energy=-3388.15496469 pbc="F F F"
Ti       1.41205261       1.41205261       2.03235600 
Al       0.00000000       0.00000000       0.00000000 
Ti       2.06376920       3.58444124       2.03235600 
Al       0.65171659       2.17238863       0.00000000 
4
Lattice="3.5482347635897433 0.0 0.0 0.0 4.924080896410256 0.0 0.0 0.0 4.06471199" Properties=species:S:1:pos:R:3 energy=-3388.15496469 pbc="F F F"
Ti       1.41205261       1.41205261       2.03235600 
Al       0.00000000       0.00000000       0.00000000 
Ti       2.13618215       3.51202829       2.03235600 
Al       0.72412954       2.09997568       0.00000000 
4
Lattice="3.6206477179487178 0.0 0.0 0.0 4.851667942051282 0.0 0.0 0.0 4.06471199" Properties=species:S:1:pos:R:3 energy=-3388.15496469 pbc="F F F"
Ti       1.41205261       1.41205261       2.03235600 
Al       0.00000000       0.00000000       0.00000000 
Ti       2.20859511       3.43961533       2.03235600 
Al       0.79654250       2.02756272       0.00000000 
4
Lattice="3.693060672307692 0.0 0.0 0.0 4.779254987692307 0.0 0.0 0.0 4.06471199" Properties=species:S:1:pos:R:3 energy=-3388.15496469 pbc="F F F"
Ti       1.41205261       1.41205261       2.03235600 
Al       0.00000000       0.00000000       0.00000000 
Ti       2.28100806       3.36720238       2.03235600 
Al       0.86895545       1.95514977       0.00000000 
4
Lattice="3.7654736266666666 0.0 0.0 0.0 4.706842033333333 0.0 0.0 0.0 4.064711990000001" Properties=species:S:1:pos:R:3 energy=-3388.15496469 pbc="F F F"
Ti       1.41205261       1.41205261       2.03235600 
Al       0.00000000       0.00000000       0.00000000 
Ti       2.35342102       3.29478942       2.03235600 
Al       0.94136841       1.88273681       0.00000000 
4
Lattice="3.8378865810256406 0.0 0.0 0.0 4.6344290789743585 0.0 0.0 0.0 4.06471199" Properties=species:S:1:pos:R:3 energy=-3388.15496469 pbc="F F F"
Ti       1.41205261       1.41205261       2.03235600 
Al       0.00000000       0.00000000       0.00000000 
Ti       2.42583397       3.22237647       2.03235600 
Al       1.01378136       1.81032386       0.00000000 
4
Lattice="3.910299535384615 0.0 0.0 0.0 4.5620161246153845 0.0 0.0 0.0 4.06471199" Properties=species:S:1:pos:R:3 energy=-3388.15496469 pbc="F F F"
Ti       1.41205261       1.41205261       2.03235600 
Al       0.00000000       0.00000000       0.00000000 
Ti       2.49824693       3.14996351       2.03235600 
Al       1.08619432       1.73791090       0.00000000 
4
Lattice="3.9827124897435895 0.0 0.0 0.0 4.4896031702564105 0.0 0.0 0.0 4.06471199" Properties=species:S:1:pos:R:3 energy=-3388.15496469 pbc="F F F"
Ti       1.41205261       1.41205261       2.03235600 
Al       0.00000000       0.00000000       0.00000000 
Ti       2.57065988       3.07755056       2.03235600 
Al       1.15860727       1.66549795       0.00000000 
4
Lattice="4.055125444102564 0.0 0.0 0.0 4.417190215897436 0.0 0.0 0.0 4.06471199" Properties=species:S:1:pos:R:3 energy=-3388.15496469 pbc="F F F"
Ti       1.41205261       1.41205261       2.03235600 
Al       0.00000000       0.00000000       0.00000000 
Ti       2.64307283       3.00513761       2.03235600 
Al       1.23102022       1.59308500       0.00000000 
4
Lattice="4.127538398461539 0.0 0.0 0.0 4.344777261538462 0.0 0.0 0.0 4.06471199" Properties=species:S:1:pos:R:3 energy=-3388.15496469 pbc="F F F"
Ti       1.41205261       1.41205261       2.03235600 
Al       0.00000000       0.00000000       0.00000000 
Ti       2.71548579       2.93272465       2.03235600 
Al       1.30343318       1.52067204       0.00000000 
4
Lattice="4.199951352820513 0.0 0.0 0.0 4.272364307179487 0.0 0.0 0.0 4.06471199" Properties=species:S:1:pos:R:3 energy=-3388.15496469 pbc="F F F"
Ti       1.41205261       1.41205261       2.03235600 
Al       0.00000000       0.00000000       0.00000000 
Ti       2.78789874       2.86031170       2.03235600 
Al       1.37584613       1.44825909       0.00000000 
4
Lattice="4.272364307179487 0.0 0.0 0.0 4.199951352820513 0.0 0.0 0.0 4.06471199" Properties=species:S:1:pos:R:3 energy=-3388.15496469 pbc="F F F"
Ti       1.41205261       1.41205261       2.03235600 
Al       0.00000000       0.00000000       0.00000000 
Ti       2.86031170       2.78789874       2.03235600 
Al       1.44825909       1.37584613       0.00000000 
4
Lattice="4.344777261538461 0.0 0.0 0.0 4.127538398461539 0.0 0.0 0.0 4.06471199" Properties=species:S:1:pos:R:3 energy=-3388.15496469 pbc="F F F"
Ti       1.41205261       1.41205261       2.03235600 
Al       0.00000000       0.00000000       0.00000000 
Ti       2.93272465       2.71548579       2.03235600 
Al       1.52067204       1.30343318       0.00000000 
4
Lattice="4.417190215897436 0.0 0.0 0.0 4.055125444102564 0.0 0.0 0.0 4.06471199" Properties=species:S:1:pos:R:3 energy=-3388.15496469 pbc="F F F"
Ti       1.41205261       1.41205261       2.03235600 
Al       0.00000000       0.00000000       0.00000000 
Ti       3.00513761       2.64307283       2.03235600 
Al       1.59308500       1.23102022       0.00000000 
4
Lattice="4.4896031702564105 0.0 0.0 0.0 3.9827124897435895 0.0 0.0 0.0 4.06471199" Properties=species:S:1:pos:R:3 energy=-3388.15496469 pbc="F F F"
Ti       1.41205261       1.41205261       2.03235600 
Al       0.00000000       0.00000000       0.00000000 
Ti       3.07755056       2.57065988       2.03235600 
Al       1.66549795       1.15860727       0.00000000 
4
Lattice="4.5620161246153845 0.0 0.0 0.0 3.910299535384615 0.0 0.0 0.0 4.06471199" Properties=species:S:1:pos:R:3 energy=-3388.15496469 pbc="F F F"
Ti       1.41205261       1.41205261       2.03235600 
Al       0.00000000       0.00000000       0.00000000 
Ti       3.14996351       2.49824693       2.03235600 
Al       1.73791090       1.08619432       0.00000000 
4
Lattice="4.6344290789743585 0.0 0.0 0.0 3.837886581025641 0.0 0.0 0.0 4.06471199" Properties=species:S:1:pos:R:3 energy=-3388.15496469 pbc="F F F"
Ti       1.41205261       1.41205261       2.03235600 
Al       0.00000000       0.00000000       0.00000000 
Ti       3.22237647       2.42583397       2.03235600 
Al       1.81032386       1.01378136       0.00000000 
4
Lattice="4.7068420333333325 0.0 0.0 0.0 3.7654736266666666 0.0 0.0 0.0 4.06471199" Properties=species:S:1:pos:R:3 energy=-3388.15496469 pbc="F F F"
Ti       1.41205261       1.41205261       2.03235600 
Al       0.00000000       0.00000000       0.00000000 
Ti       3.29478942       2.35342102       2.03235600 
Al       1.88273681       0.94136841       0.00000000 
4
Lattice="4.779254987692307 0.0 0.0 0.0 3.693060672307692 0.0 0.0 0.0 4.06471199" Properties=species:S:1:pos:R:3 energy=-3388.15496469 pbc="F F F"
Ti       1.41205261       1.41205261       2.03235600 
Al       0.00000000       0.00000000       0.00000000 
Ti       3.36720238       2.28100806       2.03235600 
Al       1.95514977       0.86895545       0.00000000 
4
Lattice="4.851667942051282 0.0 0.0 0.0 3.6206477179487178 0.0 0.0 0.0 4.06471199" Properties=species:S:1:pos:R:3 energy=-3388.15496469 pbc="F F F"
Ti       1.41205261       1.41205261       2.03235600 
Al       0.00000000       0.00000000       0.00000000 
Ti       3.43961533       2.20859511       2.03235600 
Al       2.02756272       0.79654250       0.00000000 
4
Lattice="4.924080896410256 0.0 0.0 0.0 3.5482347635897433 0.0 0.0 0.0 4.06471199" Properties=species:S:1:pos:R:3 energy=-3388.15496469 pbc="F F F"
Ti       1.41205261       1.41205261       2.03235600 
Al       0.00000000       0.00000000       0.00000000 
Ti       3.51202829       2.13618215       2.03235600 
Al       2.09997568       0.72412954       0.00000000 
4
Lattice="4.99649385076923 0.0 0.0 0.0 3.4758218092307693 0.0 0.0 0.0 4.06471199" Properties=species:S:1:pos:R:3 energy=-3388.15496469 pbc="F F F"
Ti       1.41205261       1.41205261       2.03235600 
Al       0.00000000       0.00000000       0.00000000 
Ti       3.58444124       2.06376920       2.03235600 
Al       2.17238863       0.65171659       0.00000000 
4
Lattice="5.068906805128204 0.0 0.0 0.0 3.4034088548717945 0.0 0.0 0.0 4.06471199" Properties=species:S:1:pos:R:3 energy=-3388.15496469 pbc="F F F"
Ti       1.41205261       1.41205261       2.03235600 
Al       0.00000000       0.00000000       0.00000000 
Ti       3.65685420       1.99135624       2.03235600 
Al       2.24480159       0.57930363       0.00000000 
4
Lattice="5.141319759487179 0.0 0.0 0.0 3.3309959005128205 0.0 0.0 0.0 4.06471199" Properties=species:S:1:pos:R:3 energy=-3388.15496469 pbc="F F F"
Ti       1.41205261       1.41205261       2.03235600 
Al       0.00000000       0.00000000       0.00000000 
Ti       3.72926715       1.91894329       2.03235600 
Al       2.31721454       0.50689068       0.00000000 
4
Lattice="5.213732713846154 0.0 0.0 0.0 3.258582946153846 0.0 0.0 0.0 4.06471199" Properties=species:S:1:pos:R:3 energy=-3388.15496469 pbc="F F F"
Ti       1.41205261       1.41205261       2.03235600 
Al       0.00000000       0.00000000       0.00000000 
Ti       3.80168010       1.84653034       2.03235600 
Al       2.38962749       0.43447773       0.00000000 
4
Lattice="5.286145668205128 0.0 0.0 0.0 3.1861699917948716 0.0 0.0 0.0 4.06471199" Properties=species:S:1:pos:R:3 energy=-3388.15496469 pbc="F F F"
Ti       1.41205261       1.41205261       2.03235600 
Al       0.00000000       0.00000000       0.00000000 
Ti       3.87409306       1.77411738       2.03235600 
Al       2.46204045       0.36206477       0.00000000 
4
Lattice="5.358558622564102 0.0 0.0 0.0 3.1137570374358976 0.0 0.0 0.0 4.06471199" Properties=species:S:1:pos:R:3 energy=-3388.15496469 pbc="F F F"
Ti       1.41205261       1.41205261       2.03235600 
Al       0.00000000       0.00000000       0.00000000 
Ti       3.94650601       1.70170443       2.03235600 
Al       2.53445340       0.28965182       0.00000000 
4
Lattice="5.430971576923076 0.0 0.0 0.0 3.041344083076923 0.0 0.0 0.0 4.06471199" Properties=species:S:1:pos:R:3 energy=-3388.15496469 pbc="F F F"
Ti       1.41205261       1.41205261       2.03235600 
Al       0.00000000       0.00000000       0.00000000 
Ti       4.01891897       1.62929147       2.03235600 
Al       2.60686636       0.21723886       0.00000000 
4
Lattice="5.503384531282051 0.0 0.0 0.0 2.9689311287179487 0.0 0.0 0.0 4.06471199" Properties=species:S:1:pos:R:3 energy=-3388.15496469 pbc="F F F"
Ti       1.41205261       1.41205261       2.03235600 
Al       0.00000000       0.00000000       0.00000000 
Ti       4.09133192       1.55687852       2.03235600 
Al       2.67927931       0.14482591       0.00000000 
4
Lattice="5.575797485641025 0.0 0.0 0.0 2.8965181743589743 0.0 0.0 0.0 4.06471199" Properties=species:S:1:pos:R:3 energy=-3388.15496469 pbc="F F F"
Ti       1.41205261       1.41205261       2.03235600 
Al       0.00000000       0.00000000       0.00000000 
Ti       4.16374488       1.48446556       2.03235600 
Al       2.75169227       0.07241295       0.00000000 
4
Lattice="5.64821044 0.0 0.0 0.0 2.82410522 0.0 0.0 0.0 4.06471199" Properties=species:S:1:pos:R:3 energy=-3388.15496469 pbc="F F F"
Ti       1.41205261       1.41205261       2.03235600 
Al       0.00000000       0.00000000       0.00000000 
Ti       4.23615783       1.41205261       2.03235600 
Al       2.82410522       0.00000000       0.00000000 
