2
Lattice="3.3026524537717843 4.708618668744786e-12 -3.836888586239338e-12 4.708618668744788e-12 3.3026524537578896 -3.3882317252495926e-12 -3.8368885862393386e-12 -3.3882317252495926e-12 3.3026524537767283" Properties=species:S:1:pos:R:3 energy=-3186.98040346 pbc="T T T" n_minim_iter=0
Ti      -0.00000000       0.00000000      -0.00000000 
Ti       1.65132623       1.65132623       1.65132623 
