16
Lattice="6.331462 0.0 0.0 0.0 6.331462 0.0 0.0 0.0 6.331462" Properties=species:S:1:pos:R:3:initial_magmoms:R:1:force:R:3:initial_charges:R:1 virial="0.0004908197946412076 0.00048479049682560445 0.00048479049682560445 0.0 -0.0 6.241509125883258e-09" energy=-25497.0444681 pbc="T T T"
Ti       0.00999738       0.00000000       0.00000000       0.00000000      -0.02357000       0.00000000      -0.00000000       0.00000000 
Ti       3.16573100       0.00000000       0.00000000       0.00000000      -0.01723000       0.00000000      -0.00000000      -0.00000000 
Ti       0.00000000       3.16573100       0.00000000       0.00000000      -0.00674000      -0.00000000      -0.00000000      -0.00000000 
Ti       3.16573100       3.16573100       0.00000000       0.00000000       0.00412000      -0.00000000      -0.00000000       0.00000000 
Ti       0.00000000       0.00000000       3.16573100       0.00000000      -0.00674000      -0.00000000      -0.00000000      -0.00000000 
Ti       3.16573100       0.00000000       3.16573100       0.00000000       0.00412000       0.00000000      -0.00000000       0.00000000 
Ti       0.00000000       3.16573100       3.16573100       0.00000000      -0.00334000      -0.00000000      -0.00000000      -0.00000000 
Ti       3.16573100       3.16573100       3.16573100       0.00000000       0.00153000      -0.00000000      -0.00000000       0.00000000 
Ti       1.58286550       1.58286550       1.58286550       0.00000000       0.00593000       0.00537000       0.00535000      -0.00000000 
Ti       4.74859650       1.58286550       1.58286550       0.00000000       0.00604000      -0.00522000      -0.00524000       0.00000000 
Ti       1.58286550       4.74859650       1.58286550       0.00000000       0.00593000      -0.00536000       0.00535000      -0.00000000 
Ti       4.74859650       4.74859650       1.58286550       0.00000000       0.00604000       0.00523000      -0.00524000       0.00000000 
Ti       1.58286550       1.58286550       4.74859650       0.00000000       0.00593000       0.00537000      -0.00535000      -0.00000000 
Ti       4.74859650       1.58286550       4.74859650       0.00000000       0.00604000      -0.00522000       0.00524000       0.00000000 
Ti       1.58286550       4.74859650       4.74859650       0.00000000       0.00593000      -0.00536000      -0.00535000      -0.00000000 
Ti       4.74859650       4.74859650       4.74859650       0.00000000       0.00604000       0.00523000       0.00524000       0.00000000 
