2
Lattice="2.6699608721171884 -2.0183592642336657e-16 1.393291949568754e-16 -1.3349804360585937 2.312253943456749 -5.061378871496315e-17 2.212547615915182e-16 3.4932790867561784e-17 4.226604545306077" Properties=species:S:1:pos:R:3 energy=-3186.70217777 pbc="T T T" n_minim_iter=0
Ti      -0.00000000      -0.00000000       0.00000000 
Ti       0.00000000       1.54150263       2.11330227 
