2
Lattice="2.9689699110938563 -2.2443954096359023e-16 1.5493267780957078e-16 -1.4844849555469275 2.571203367294099 -5.628202920517998e-17 2.460330923615984e-16 3.8844915698739496e-17 4.6999421797352445" Properties=species:S:1:pos:R:3 energy=-3187.17119276 pbc="T T T" n_minim_iter=0
Ti      -0.00000000      -0.00000000       0.00000000 
Ti       0.00000000       1.71413557       2.34997109 
