2
Lattice="2.876128161958526 -2.174211607906119e-16 1.5008782547465387e-16 -1.4380640809792626 2.4908000539731208 -5.452205110073045e-17 2.3833946685375035e-16 3.763020823235203e-17 4.552971726726925" Properties=species:S:1:pos:R:3 energy=-3187.30174035 pbc="T T T" n_minim_iter=0
Ti      -0.00000000      -0.00000000       0.00000000 
Ti      -0.00000000       1.66053337       2.27648586 
