2
Lattice="2.8273708077879376 -2.1373534432350787e-16 1.4754347249339518e-16 -1.4136854038939684 2.4485749466201194 -5.359776998183377e-17 2.342990343195116e-16 3.699228485516553e-17 4.475787803581603" Properties=species:S:1:pos:R:3 energy=-3187.26878514 pbc="T T T" n_minim_iter=0
Ti      -0.00000000      -0.00000000       0.00000000 
Ti      -0.00000000       1.63238329       2.23789390 
