8
Lattice="5.696119269234996 -4.0479069782522714e-07 2.3041043895510495e-15 -2.8480599851765236 4.932983787182155 -2.631648324135931e-15 1.865160763851541e-15 -1.3830143121562493e-15 4.593172856470913" Properties=species:S:1:pos:R:3:tags:I:1 spacegroup="P 1" energy=-9783.20433079 unit_cell=conventional pbc="T T T" n_minim_iter=0
Ti       2.84805879       3.27206359       1.14829321        0 
Ti      -1.40966134       4.10252394       3.44487964        1 
Ti       1.40966079       4.10252306       3.44487964        2 
Ti       1.43839849       0.83046032       1.14829321        3 
Ti       4.25772062       0.83045944       1.14829321        4 
Ti       0.00000049       1.66091980       3.44487964        5 
Al      -0.00000074       3.28865602       1.14829321        6 
Al       2.84806003       1.64432736       3.44487964        7 
