8
Lattice="5.363199763742283 -3.764291586619535e-06 4.236075829101835e-12 -2.6816031418432806 4.644665357566768 -5.052655511199524e-12 3.402237847089854e-12 -2.7215817794414102e-12 4.296535139023786" Properties=species:S:1:pos:R:3:tags:I:1 spacegroup="P 1" energy=-9781.95613248 unit_cell=conventional pbc="T T T" n_minim_iter=0
Ti       2.68159739       3.07863798       1.07413378        0 
Ti      -1.32538534       3.86165265       3.22240135        1 
Ti       1.32538000       3.86165045       3.22240135        2 
Ti       1.35621662       0.78301114       1.07413378        3 
Ti       4.00698197       0.78300895       1.07413378        4 
Ti      -0.00000077       1.56602362       3.22240135        5 
Al      -0.00000257       3.09644255       1.07413378        6 
Al       2.68159920       1.54821904       3.22240135        7 
