2
Lattice="2.9775010493021523 -6.445670799675005e-14 2.395056553352377e-12 -6.445670799675005e-14 2.9775010492968903 -4.4341880658979514e-13 2.3950565533523774e-12 -4.4341880658979524e-13 2.9775010493146388" Properties=species:S:1:pos:R:3 energy=-3186.82210386 pbc="T T T" n_minim_iter=0
Ti      -0.00000000       0.00000000      -0.00000000 
Ti       1.48875052       1.48875052       1.48875052 
