2
Lattice="3.1480054743461734 -6.814777434911691e-14 2.5322077193185395e-12 -6.814777434911691e-14 3.1480054743406103 -4.688108610070451e-13 2.53220771931854e-12 -4.688108610070452e-13 3.1480054743593753" Properties=species:S:1:pos:R:3 energy=-3187.16946687 pbc="T T T" n_minim_iter=0
Ti      -0.00000000       0.00000000      -0.00000000 
Ti       1.57400274       1.57400274       1.57400274 
