2
Lattice="3.2771639494343736 -7.094378683617106e-14 2.6361008320526208e-12 -7.094378683617106e-14 3.2771639494285827 -4.880455467170604e-13 2.636100832052621e-12 -4.880455467170605e-13 3.277163949448117" Properties=species:S:1:pos:R:3 energy=-3187.04765539 pbc="T T T" n_minim_iter=0
Ti      -0.00000000       0.00000000      -0.00000000 
Ti       1.63858197       1.63858197       1.63858197 
