2
Lattice="3.1 0.0 0.0 1.55 2.1920310216782974 0.0 0.0 0.0 4.384062043356595" Properties=species:S:1:pos:R:3 config_type=burgers_path pbc="T T T"
Ti       0.00000000       0.00000000       0.00000000 
Ti       1.55000000       0.00000000       2.19203102 
2
Lattice="3.089655172413793 0.0 0.0 1.5448275862068965 2.2000599909513365 0.0 0.0 0.0 4.386211628068437" Properties=species:S:1:pos:R:3 config_type=burgers_path pbc="T T T"
Ti       0.00000000       0.00000000       0.00000000 
Ti       1.55000000       0.00000000       2.19203102 
2
Lattice="3.079310344827586 0.0 0.0 1.539655172413793 2.2080889602243756 0.0 0.0 0.0 4.3883612127802785" Properties=species:S:1:pos:R:3 config_type=burgers_path pbc="T T T"
Ti       0.00000000       0.00000000       0.00000000 
Ti       1.55000000       0.00000000       2.19203102 
2
Lattice="3.068965517241379 0.0 0.0 1.5344827586206895 2.2161179294974143 0.0 0.0 0.0 4.390510797492119" Properties=species:S:1:pos:R:3 config_type=burgers_path pbc="T T T"
Ti       0.00000000       0.00000000       0.00000000 
Ti       1.55000000       0.00000000       2.19203102 
2
Lattice="3.0586206896551724 0.0 0.0 1.5293103448275862 2.2241468987704534 0.0 0.0 0.0 4.392660382203961" Properties=species:S:1:pos:R:3 config_type=burgers_path pbc="T T T"
Ti       0.00000000       0.00000000       0.00000000 
Ti       1.55000000       0.00000000       2.19203102 
2
Lattice="3.048275862068966 0.0 0.0 1.524137931034483 2.2321758680434924 0.0 0.0 0.0 4.394809966915803" Properties=species:S:1:pos:R:3 config_type=burgers_path pbc="T T T"
Ti       0.00000000       0.00000000       0.00000000 
Ti       1.55000000       0.00000000       2.19203102 
2
Lattice="3.037931034482759 0.0 0.0 1.5189655172413794 2.2402048373165315 0.0 0.0 0.0 4.396959551627644" Properties=species:S:1:pos:R:3 config_type=burgers_path pbc="T T T"
Ti       0.00000000       0.00000000       0.00000000 
Ti       1.55000000       0.00000000       2.19203102 
2
Lattice="3.027586206896552 0.0 0.0 1.513793103448276 2.24823380658957 0.0 0.0 0.0 4.399109136339485" Properties=species:S:1:pos:R:3 config_type=burgers_path pbc="T T T"
Ti       0.00000000       0.00000000       0.00000000 
Ti       1.55000000       0.00000000       2.19203102 
2
Lattice="3.0172413793103448 0.0 0.0 1.5086206896551724 2.2562627758626093 0.0 0.0 0.0 4.401258721051327" Properties=species:S:1:pos:R:3 config_type=burgers_path pbc="T T T"
Ti       0.00000000       0.00000000       0.00000000 
Ti       1.55000000       0.00000000       2.19203102 
2
Lattice="3.006896551724138 0.0 0.0 1.503448275862069 2.2642917451356483 0.0 0.0 0.0 4.403408305763168" Properties=species:S:1:pos:R:3 config_type=burgers_path pbc="T T T"
Ti       0.00000000       0.00000000       0.00000000 
Ti       1.55000000       0.00000000       2.19203102 
2
Lattice="2.9965517241379307 0.0 0.0 1.4982758620689653 2.2723207144086874 0.0 0.0 0.0 4.40555789047501" Properties=species:S:1:pos:R:3 config_type=burgers_path pbc="T T T"
Ti       0.00000000       0.00000000       0.00000000 
Ti       1.55000000       0.00000000       2.19203102 
2
Lattice="2.9862068965517237 0.0 0.0 1.4931034482758618 2.2803496836817265 0.0 0.0 0.0 4.407707475186852" Properties=species:S:1:pos:R:3 config_type=burgers_path pbc="T T T"
Ti       0.00000000       0.00000000       0.00000000 
Ti       1.55000000       0.00000000       2.19203102 
2
Lattice="2.975862068965517 0.0 0.0 1.4879310344827585 2.2883786529547656 0.0 0.0 0.0 4.409857059898694" Properties=species:S:1:pos:R:3 config_type=burgers_path pbc="T T T"
Ti       0.00000000       0.00000000       0.00000000 
Ti       1.55000000       0.00000000       2.19203102 
2
Lattice="2.9655172413793105 0.0 0.0 1.4827586206896552 2.2964076222278047 0.0 0.0 0.0 4.412006644610535" Properties=species:S:1:pos:R:3 config_type=burgers_path pbc="T T T"
Ti       0.00000000       0.00000000       0.00000000 
Ti       1.55000000       0.00000000       2.19203102 
2
Lattice="2.955172413793103 0.0 0.0 1.4775862068965515 2.3044365915008433 0.0 0.0 0.0 4.414156229322376" Properties=species:S:1:pos:R:3 config_type=burgers_path pbc="T T T"
Ti       0.00000000       0.00000000       0.00000000 
Ti       1.55000000       0.00000000       2.19203102 
2
Lattice="2.9448275862068964 0.0 0.0 1.4724137931034482 2.3124655607738824 0.0 0.0 0.0 4.416305814034217" Properties=species:S:1:pos:R:3 config_type=burgers_path pbc="T T T"
Ti       0.00000000       0.00000000       0.00000000 
Ti       1.55000000       0.00000000       2.19203102 
2
Lattice="2.934482758620689 0.0 0.0 1.4672413793103445 2.320494530046921 0.0 0.0 0.0 4.418455398746059" Properties=species:S:1:pos:R:3 config_type=burgers_path pbc="T T T"
Ti       0.00000000       0.00000000       0.00000000 
Ti       1.55000000       0.00000000       2.19203102 
2
Lattice="2.9241379310344824 0.0 0.0 1.4620689655172412 2.3285234993199606 0.0 0.0 0.0 4.420604983457901" Properties=species:S:1:pos:R:3 config_type=burgers_path pbc="T T T"
Ti       0.00000000       0.00000000       0.00000000 
Ti       1.55000000       0.00000000       2.19203102 
2
Lattice="2.913793103448276 0.0 0.0 1.456896551724138 2.3365524685929993 0.0 0.0 0.0 4.422754568169742" Properties=species:S:1:pos:R:3 config_type=burgers_path pbc="T T T"
Ti       0.00000000       0.00000000       0.00000000 
Ti       1.55000000       0.00000000       2.19203102 
2
Lattice="2.9034482758620683 0.0 0.0 1.4517241379310342 2.3445814378660383 0.0 0.0 0.0 4.424904152881584" Properties=species:S:1:pos:R:3 config_type=burgers_path pbc="T T T"
Ti       0.00000000       0.00000000       0.00000000 
Ti       1.55000000       0.00000000       2.19203102 
2
Lattice="2.8931034482758617 0.0 0.0 1.4465517241379309 2.3526104071390774 0.0 0.0 0.0 4.427053737593425" Properties=species:S:1:pos:R:3 config_type=burgers_path pbc="T T T"
Ti       0.00000000       0.00000000       0.00000000 
Ti       1.55000000       0.00000000       2.19203102 
2
Lattice="2.8827586206896547 0.0 0.0 1.4413793103448274 2.3606393764121165 0.0 0.0 0.0 4.429203322305266" Properties=species:S:1:pos:R:3 config_type=burgers_path pbc="T T T"
Ti       0.00000000       0.00000000       0.00000000 
Ti       1.55000000       0.00000000       2.19203102 
2
Lattice="2.8724137931034477 0.0 0.0 1.4362068965517238 2.3686683456851556 0.0 0.0 0.0 4.431352907017108" Properties=species:S:1:pos:R:3 config_type=burgers_path pbc="T T T"
Ti       0.00000000       0.00000000       0.00000000 
Ti       1.55000000       0.00000000       2.19203102 
2
Lattice="2.862068965517241 0.0 0.0 1.4310344827586206 2.3766973149581943 0.0 0.0 0.0 4.43350249172895" Properties=species:S:1:pos:R:3 config_type=burgers_path pbc="T T T"
Ti       0.00000000       0.00000000       0.00000000 
Ti       1.55000000       0.00000000       2.19203102 
2
Lattice="2.8517241379310336 0.0 0.0 1.4258620689655168 2.3847262842312333 0.0 0.0 0.0 4.435652076440792" Properties=species:S:1:pos:R:3 config_type=burgers_path pbc="T T T"
Ti       0.00000000       0.00000000       0.00000000 
Ti       1.55000000       0.00000000       2.19203102 
2
Lattice="2.841379310344827 0.0 0.0 1.4206896551724135 2.3927552535042724 0.0 0.0 0.0 4.4378016611526325" Properties=species:S:1:pos:R:3 config_type=burgers_path pbc="T T T"
Ti       0.00000000       0.00000000       0.00000000 
Ti       1.55000000       0.00000000       2.19203102 
2
Lattice="2.8310344827586205 0.0 0.0 1.4155172413793102 2.4007842227773115 0.0 0.0 0.0 4.439951245864474" Properties=species:S:1:pos:R:3 config_type=burgers_path pbc="T T T"
Ti       0.00000000       0.00000000       0.00000000 
Ti       1.55000000       0.00000000       2.19203102 
2
Lattice="2.8206896551724134 0.0 0.0 1.4103448275862067 2.40881319205035 0.0 0.0 0.0 4.442100830576315" Properties=species:S:1:pos:R:3 config_type=burgers_path pbc="T T T"
Ti       0.00000000       0.00000000       0.00000000 
Ti       1.55000000       0.00000000       2.19203102 
2
Lattice="2.8103448275862064 0.0 0.0 1.4051724137931032 2.4168421613233892 0.0 0.0 0.0 4.444250415288157" Properties=species:S:1:pos:R:3 config_type=burgers_path pbc="T T T"
Ti       0.00000000       0.00000000       0.00000000 
Ti       1.55000000       0.00000000       2.19203102 
2
Lattice="2.7999999999999994 0.0 0.0 1.3999999999999997 2.4248711305964283 0.0 0.0 0.0 4.446399999999999" Properties=species:S:1:pos:R:3 config_type=burgers_path pbc="T T T"
Ti       0.00000000       0.00000000       0.00000000 
Ti       1.55000000       0.00000000       2.19203102 
2
Lattice="2.7999999999999994 0.0 0.0 1.3999999999999997 2.4248711305964283 0.0 0.0 0.0 4.446399999999999" Properties=species:S:1:pos:R:3 config_type=burgers_path pbc="T T T"
Ti       0.00000000       0.00000000       0.00000000 
Ti       1.55000000       0.00000000       2.19203102 
2
Lattice="2.8 0.0 0.0 1.4 2.4248711305964283 0.0 0.0 0.0 4.446399999999999" Properties=species:S:1:pos:R:3 config_type=burgers_path pbc="T T T"
Ti       0.00000000       0.00000000       0.00000000 
Ti       1.54482759       0.02787208       2.19310581 
2
Lattice="2.7999999999999994 0.0 0.0 1.3999999999999997 2.4248711305964283 0.0 0.0 0.0 4.446399999999999" Properties=species:S:1:pos:R:3 config_type=burgers_path pbc="T T T"
Ti       0.00000000       0.00000000       0.00000000 
Ti       1.53965517       0.05574416       2.19418060 
2
Lattice="2.8 0.0 0.0 1.4 2.4248711305964283 0.0 0.0 0.0 4.446399999999999" Properties=species:S:1:pos:R:3 config_type=burgers_path pbc="T T T"
Ti       0.00000000       0.00000000       0.00000000 
Ti       1.53448276       0.08361625       2.19525540 
2
Lattice="2.7999999999999994 0.0 0.0 1.3999999999999997 2.424871130596428 0.0 0.0 0.0 4.446399999999999" Properties=species:S:1:pos:R:3 config_type=burgers_path pbc="T T T"
Ti       0.00000000       0.00000000       0.00000000 
Ti       1.52931034       0.11148833       2.19633019 
2
Lattice="2.7999999999999994 0.0 0.0 1.3999999999999997 2.4248711305964283 0.0 0.0 0.0 4.446399999999999" Properties=species:S:1:pos:R:3 config_type=burgers_path pbc="T T T"
Ti       0.00000000       0.00000000       0.00000000 
Ti       1.52413793       0.13936041       2.19740498 
2
Lattice="2.7999999999999994 0.0 0.0 1.3999999999999997 2.4248711305964283 0.0 0.0 0.0 4.446399999999999" Properties=species:S:1:pos:R:3 config_type=burgers_path pbc="T T T"
Ti       0.00000000       0.00000000       0.00000000 
Ti       1.51896552       0.16723249       2.19847977 
2
Lattice="2.799999999999999 0.0 0.0 1.3999999999999995 2.424871130596428 0.0 0.0 0.0 4.446399999999999" Properties=species:S:1:pos:R:3 config_type=burgers_path pbc="T T T"
Ti       0.00000000       0.00000000       0.00000000 
Ti       1.51379310       0.19510457       2.19955457 
2
Lattice="2.7999999999999994 0.0 0.0 1.3999999999999997 2.424871130596428 0.0 0.0 0.0 4.446399999999999" Properties=species:S:1:pos:R:3 config_type=burgers_path pbc="T T T"
Ti       0.00000000       0.00000000       0.00000000 
Ti       1.50862069       0.22297666       2.20062936 
2
Lattice="2.7999999999999994 0.0 0.0 1.3999999999999997 2.4248711305964283 0.0 0.0 0.0 4.446399999999999" Properties=species:S:1:pos:R:3 config_type=burgers_path pbc="T T T"
Ti       0.00000000       0.00000000       0.00000000 
Ti       1.50344828       0.25084874       2.20170415 
2
Lattice="2.7999999999999994 0.0 0.0 1.3999999999999997 2.424871130596428 0.0 0.0 0.0 4.446399999999999" Properties=species:S:1:pos:R:3 config_type=burgers_path pbc="T T T"
Ti       0.00000000       0.00000000       0.00000000 
Ti       1.49827586       0.27872082       2.20277894 
2
Lattice="2.7999999999999994 0.0 0.0 1.3999999999999997 2.424871130596428 0.0 0.0 0.0 4.446399999999999" Properties=species:S:1:pos:R:3 config_type=burgers_path pbc="T T T"
Ti       0.00000000       0.00000000       0.00000000 
Ti       1.49310345       0.30659290       2.20385374 
2
Lattice="2.7999999999999994 0.0 0.0 1.3999999999999997 2.4248711305964283 0.0 0.0 0.0 4.446399999999999" Properties=species:S:1:pos:R:3 config_type=burgers_path pbc="T T T"
Ti       0.00000000       0.00000000       0.00000000 
Ti       1.48793103       0.33446498       2.20492853 
2
Lattice="2.7999999999999994 0.0 0.0 1.3999999999999997 2.424871130596428 0.0 0.0 0.0 4.446399999999999" Properties=species:S:1:pos:R:3 config_type=burgers_path pbc="T T T"
Ti       0.00000000       0.00000000       0.00000000 
Ti       1.48275862       0.36233707       2.20600332 
2
Lattice="2.7999999999999994 0.0 0.0 1.3999999999999997 2.424871130596428 0.0 0.0 0.0 4.446399999999999" Properties=species:S:1:pos:R:3 config_type=burgers_path pbc="T T T"
Ti       0.00000000       0.00000000       0.00000000 
Ti       1.47758621       0.39020915       2.20707811 
2
Lattice="2.7999999999999994 0.0 0.0 1.3999999999999997 2.424871130596428 0.0 0.0 0.0 4.446399999999999" Properties=species:S:1:pos:R:3 config_type=burgers_path pbc="T T T"
Ti       0.00000000       0.00000000       0.00000000 
Ti       1.47241379       0.41808123       2.20815291 
2
Lattice="2.7999999999999994 0.0 0.0 1.3999999999999997 2.424871130596428 0.0 0.0 0.0 4.446399999999999" Properties=species:S:1:pos:R:3 config_type=burgers_path pbc="T T T"
Ti       0.00000000       0.00000000       0.00000000 
Ti       1.46724138       0.44595331       2.20922770 
2
Lattice="2.7999999999999994 0.0 0.0 1.3999999999999997 2.4248711305964274 0.0 0.0 0.0 4.446399999999999" Properties=species:S:1:pos:R:3 config_type=burgers_path pbc="T T T"
Ti       0.00000000       0.00000000       0.00000000 
Ti       1.46206897       0.47382540       2.21030249 
2
Lattice="2.7999999999999994 0.0 0.0 1.3999999999999997 2.424871130596428 0.0 0.0 0.0 4.446399999999999" Properties=species:S:1:pos:R:3 config_type=burgers_path pbc="T T T"
Ti       0.00000000       0.00000000       0.00000000 
Ti       1.45689655       0.50169748       2.21137728 
2
Lattice="2.7999999999999994 0.0 0.0 1.3999999999999997 2.424871130596428 0.0 0.0 0.0 4.446399999999999" Properties=species:S:1:pos:R:3 config_type=burgers_path pbc="T T T"
Ti       0.00000000       0.00000000       0.00000000 
Ti       1.45172414       0.52956956       2.21245208 
2
Lattice="2.7999999999999994 0.0 0.0 1.3999999999999997 2.4248711305964274 0.0 0.0 0.0 4.446399999999999" Properties=species:S:1:pos:R:3 config_type=burgers_path pbc="T T T"
Ti       0.00000000       0.00000000       0.00000000 
Ti       1.44655172       0.55744164       2.21352687 
2
Lattice="2.7999999999999994 0.0 0.0 1.3999999999999997 2.424871130596428 0.0 0.0 0.0 4.446399999999999" Properties=species:S:1:pos:R:3 config_type=burgers_path pbc="T T T"
Ti       0.00000000       0.00000000       0.00000000 
Ti       1.44137931       0.58531372       2.21460166 
2
Lattice="2.7999999999999994 0.0 0.0 1.3999999999999997 2.4248711305964274 0.0 0.0 0.0 4.446399999999999" Properties=species:S:1:pos:R:3 config_type=burgers_path pbc="T T T"
Ti       0.00000000       0.00000000       0.00000000 
Ti       1.43620690       0.61318581       2.21567645 
2
Lattice="2.7999999999999994 0.0 0.0 1.3999999999999997 2.4248711305964274 0.0 0.0 0.0 4.446399999999999" Properties=species:S:1:pos:R:3 config_type=burgers_path pbc="T T T"
Ti       0.00000000       0.00000000       0.00000000 
Ti       1.43103448       0.64105789       2.21675125 
2
Lattice="2.7999999999999994 0.0 0.0 1.3999999999999997 2.4248711305964274 0.0 0.0 0.0 4.446399999999999" Properties=species:S:1:pos:R:3 config_type=burgers_path pbc="T T T"
Ti       0.00000000       0.00000000       0.00000000 
Ti       1.42586207       0.66892997       2.21782604 
2
Lattice="2.7999999999999994 0.0 0.0 1.3999999999999997 2.4248711305964274 0.0 0.0 0.0 4.446399999999999" Properties=species:S:1:pos:R:3 config_type=burgers_path pbc="T T T"
Ti       0.00000000       0.00000000       0.00000000 
Ti       1.42068966       0.69680205       2.21890083 
2
Lattice="2.8 0.0 0.0 1.4 2.4248711305964274 0.0 0.0 0.0 4.446399999999999" Properties=species:S:1:pos:R:3 config_type=burgers_path pbc="T T T"
Ti       0.00000000       0.00000000       0.00000000 
Ti       1.41551724       0.72467413       2.21997562 
2
Lattice="2.7999999999999994 0.0 0.0 1.3999999999999997 2.4248711305964274 0.0 0.0 0.0 4.446399999999999" Properties=species:S:1:pos:R:3 config_type=burgers_path pbc="T T T"
Ti       0.00000000       0.00000000       0.00000000 
Ti       1.41034483       0.75254622       2.22105042 
2
Lattice="2.7999999999999994 0.0 0.0 1.3999999999999997 2.4248711305964274 0.0 0.0 0.0 4.446399999999999" Properties=species:S:1:pos:R:3 config_type=burgers_path pbc="T T T"
Ti       0.00000000       0.00000000       0.00000000 
Ti       1.40517241       0.78041830       2.22212521 
2
Lattice="2.7999999999999994 0.0 0.0 1.3999999999999997 2.4248711305964274 0.0 0.0 0.0 4.446399999999999" Properties=species:S:1:pos:R:3 config_type=burgers_path pbc="T T T"
Ti       0.00000000       0.00000000       0.00000000 
Ti       1.40000000       0.80829038       2.22320000 
