2
Lattice="2.5693254586861145 0.006176088821250469 7.719084494682512e-07 -1.2793140795278235 2.228186931237513 -7.78626540278448e-07 1.2226567348915684e-06 -7.181884250222849e-07 4.192817670357679" Properties=species:S:1:pos:R:3 pbc="T T T" n_minim_iter=0
Ti       0.00037717      -0.00021776       0.00000000 
Ti       0.00318793       1.48773479       2.09640857 
