2
Lattice="2.5975620653258744 0.006243963363974632 7.803916391614277e-07 -1.2933736017694342 2.252674462657289 -7.87183561057109e-07 1.236093599093366e-06 -7.260812375042635e-07 4.238896279383204" Properties=species:S:1:pos:R:3 pbc="T T T" n_minim_iter=0
Ti       0.00038131      -0.00022015       0.00000000 
Ti       0.00322296       1.50408483       2.11944787 
