2
Lattice="2.6538620487219524 -8.439965646802187e-16 4.52209075911858e-41 -1.3269310243609753 2.298311952332625 2.2925937677231856e-25 2.1182705656166526e-40 4.20384770150531e-25 4.203558478441671" Properties=species:S:1:pos:R:3 pbc="T T T" n_minim_iter=0
Ti       0.00000000       0.00000000       0.00000000 
Ti      -0.00000133       1.53220873       2.10177924 
