54
Lattice="8.47231566 0.0 0.0 0.0 8.47231566 0.0 0.0 0.0 12.194135970000001" Properties=species:S:1:pos:R:3:forces:R:3 pbc="T T T"
Ti       1.41205261       1.41205261       2.03235600       0.00749597       0.00746088       0.01039246 
Ti       4.23615783       1.41205261       2.03235600       0.00098381       0.00035970       0.00006321 
Ti       7.06026305       1.41205261       2.03235600      -0.00261972       0.00267358       0.00352320 
Ti       1.41205261       4.23615783       2.03235600       0.00020374       0.00000000       0.00030774 
Ti       4.23615783       4.23615783       2.03235600       0.00034100       0.00000000      -0.00000697 
Ti       7.06026305       4.23615783       2.03235600      -0.00051680       0.00000000      -0.00017568 
Ti       1.41205261       7.06026305       2.03235600       0.00749597      -0.00746088       0.01039246 
Ti       4.23615783       7.06026305       2.03235600       0.00098381      -0.00035970       0.00006321 
Ti       7.06026305       7.06026305       2.03235600      -0.00261972      -0.00267358       0.00352320 
Ti       1.41205261       1.41205261       6.09706799      -0.00002010       0.00001936       0.00046943 
Ti       4.23615783       1.41205261       6.09706799       0.00004057       0.00000068       0.00015061 
Ti       7.06026305       1.41205261       6.09706799      -0.00002055      -0.00001862       0.00046737 
Ti       1.41205261       4.23615783       6.09706799      -0.00000037       0.00000000       0.00015108 
Ti       4.23615783       4.23615783       6.09706799       0.00000179       0.00000000       0.00001062 
Ti       7.06026305       4.23615783       6.09706799      -0.00000143       0.00000000       0.00015013 
Ti       1.41205261       7.06026305       6.09706799      -0.00002010      -0.00001936       0.00046943 
Ti       4.23615783       7.06026305       6.09706799       0.00004057      -0.00000068       0.00015061 
Ti       7.06026305       7.06026305       6.09706799      -0.00002055       0.00001862       0.00046737 
Ti       1.41205261       1.41205261      10.16177998      -0.00259535      -0.00266442       0.00353489 
Ti       4.23615783       1.41205261      10.16177998       0.00099351      -0.00036067       0.00007151 
Ti       7.06026305       1.41205261      10.16177998       0.00719967      -0.00711323       0.00996377 
Ti       1.41205261       4.23615783      10.16177998      -0.00051312      -0.00000000      -0.00017540 
Ti       4.23615783       4.23615783      10.16177998       0.00033795       0.00000000      -0.00000633 
Ti       7.06026305       4.23615783      10.16177998       0.00020712       0.00000000       0.00031283 
Ti       1.41205261       7.06026305      10.16177998      -0.00259535       0.00266442       0.00353489 
Ti       4.23615783       7.06026305      10.16177998       0.00099351       0.00036067       0.00007151 
Ti       7.06026305       7.06026305      10.16177998       0.00719967       0.00711323       0.00996377 
Al       0.00570585       0.00000000       0.00821239      -0.03538322       0.00000000      -0.05662207 
Al       2.82410522       0.00000000       0.00000000       0.00663183       0.00000000      -0.00022986 
Al       5.64821044       0.00000000       0.00000000       0.00646067      -0.00000000      -0.00020329 
Al       0.00000000       2.82410522       0.00000000      -0.00046801      -0.00002938      -0.00021619 
Al       2.82410522       2.82410522       0.00000000       0.00005985      -0.00035803      -0.00024208 
Al       5.64821044       2.82410522       0.00000000       0.00006002       0.00035996      -0.00024727 
Al       0.00000000       5.64821044       0.00000000      -0.00046801       0.00002938      -0.00021619 
Al       2.82410522       5.64821044       0.00000000       0.00005985       0.00035803      -0.00024208 
Al       5.64821044       5.64821044       0.00000000       0.00006002      -0.00035996      -0.00024727 
Al       0.00000000       0.00000000       4.06471199       0.00001481      -0.00000000      -0.00059332 
Al       2.82410522       0.00000000       4.06471199      -0.00001325       0.00000000       0.00005061 
Al       5.64821044       0.00000000       4.06471199      -0.00000523      -0.00000000       0.00005823 
Al       0.00000000       2.82410522       4.06471199      -0.00005470      -0.00000312       0.00005282 
Al       2.82410522       2.82410522       4.06471199       0.00008934       0.00005399       0.00021092 
Al       5.64821044       2.82410522       4.06471199      -0.00002941       0.00006652       0.00012883 
Al       0.00000000       5.64821044       4.06471199      -0.00005470       0.00000312       0.00005282 
Al       2.82410522       5.64821044       4.06471199       0.00008934      -0.00005399       0.00021092 
Al       5.64821044       5.64821044       4.06471199      -0.00002941      -0.00006652       0.00012883 
Al       0.00000000       0.00000000       8.12942398       0.00000802      -0.00000000      -0.00058166 
Al       2.82410522       0.00000000       8.12942398      -0.00000771       0.00000000       0.00005344 
Al       5.64821044       0.00000000       8.12942398      -0.00000559      -0.00000000       0.00005693 
Al       0.00000000       2.82410522       8.12942398      -0.00005682      -0.00000018       0.00005678 
Al       2.82410522       2.82410522       8.12942398      -0.00003047      -0.00006534       0.00012777 
Al       5.64821044       2.82410522       8.12942398       0.00009229      -0.00005567       0.00021347 
Al       0.00000000       5.64821044       8.12942398      -0.00005682       0.00000018       0.00005678 
Al       2.82410522       5.64821044       8.12942398      -0.00003047       0.00006534       0.00012777 
Al       5.64821044       5.64821044       8.12942398       0.00009229       0.00005567       0.00021347 
