2
Lattice="3.203298518518034 -1.5342825467889088e-17 -6.575496629095324e-18 -1.5342825467889088e-17 3.203298518518034 -3.049505683058701e-18 -6.575496629095324e-18 -3.049505683058701e-18 3.203298518518034" Properties=species:S:1:pos:R:3 energy=-3187.12091525 pbc="T T T" n_minim_iter=0
Ti       0.00000000       0.00000000      -0.00000000 
Ti       1.60164926       1.60164926       1.60164926 
