2
Lattice="3.253358143568547 -1.5582595843861825e-17 -6.678255361655069e-18 -1.5582595843861825e-17 3.253358143568547 -3.0971619068545245e-18 -6.678255361655069e-18 -3.0971619068545245e-18 3.253358143568547" Properties=species:S:1:pos:R:3 energy=-3187.05583651 pbc="T T T" n_minim_iter=0
Ti       0.00000000       0.00000000      -0.00000000 
Ti       1.62667907       1.62667907       1.62667907 
