2
Lattice="2.739461603015574 0.0 0.0 0.0 2.739461603015574 0.0 0.0 0.0 3.948282609306134" Properties=species:S:1:pos:R:3:tags:I:1 spacegroup="P 1" unit_cell=conventional pbc="T T T" n_minim_iter=0
Ti       1.36973080       1.36973080       1.97414130        0 
Al       0.00000000       0.00000000       0.00000000        1 
