2
Lattice="2.6924812788669166 0.0 0.0 0.0 2.6924812788669166 0.0 0.0 0.0 3.882194570667564" Properties=species:S:1:pos:R:3:tags:I:1 spacegroup="P 1" unit_cell=conventional pbc="T T T" n_minim_iter=0
Ti       1.34624064       1.34624064       1.94109729        0 
Al       0.00000000       0.00000000       0.00000000        1 
