2
Lattice="2.6176510790922944 0.0 0.0 0.0 2.6176510790922944 0.0 0.0 0.0 3.774299523237834" Properties=species:S:1:pos:R:3:tags:I:1 spacegroup="P 1" unit_cell=conventional pbc="T T T" n_minim_iter=0
Ti       1.30882554       1.30882554       1.88714976        0 
Al       0.00000000       0.00000000       0.00000000        1 
