8
Lattice="4.059085986292367 -1.4919087257125455e-08 4.3184796468347976e-08 -1.491908725712545e-08 4.059090804959424 3.513061443442603e-08 4.318479646834797e-08 3.513061443442603e-08 4.059100411587104" Properties=species:S:1:pos:R:3 pbc="T T T" n_minim_iter=3
Ni      -0.00002030       0.00000000       0.00000406 
O      -0.00001621       0.00000002       2.02955426 
O      -0.00001624       2.02954540       0.00000408 
Ni      -0.00001622       2.02954542       2.02955428 
O       2.02952676      -0.00000001       0.00000814 
Ni       2.02952678       0.00000001       2.02955429 
Ni       2.02952675       2.02954540       0.00000410 
O       2.02952677       2.02954541       2.02955430 
