2
Lattice="1.6502094713778817 0.44898595122095736 -0.1823678531596552 -0.43627149598927045 1.0530179785089306 0.2726992754719283 -0.28949683633122775 0.3327195036696866 1.2074570187210398" Properties=species:S:1:pos:R:3:tags:I:1 spacegroup="P 1" energy=-315055.891898 unit_cell=conventional pbc="T T T" n_minim_iter=200
Ti       0.80175630       1.11373146       0.90702592        0 
Ti       0.12268484       0.72099197       0.39076252        1 
