3
Lattice="3.93466139928817 -2.271688788855473 7.2362283174070286e-09 3.934661413668142 2.271688813762315 -7.23622835699149e-09 -1.3963854449614485e-17 -8.842671028057491e-09 2.8117741941542183" Properties=species:S:1:pos:R:3 energy=-4780.98760938 pbc="T T T" n_minim_iter=0
Ti       1.31155643      -0.00000000      -0.00000000 
Ti       3.93466141       0.00000001       1.40588709 
Ti       6.55776638       0.00000002       1.40588709 
