216
Lattice="17.25254361 0.0 0.0 -8.626271804999996 14.94114104615889 0.0 0.0 0.0 13.96584615" Properties=species:S:1:pos:R:3:forces:R:3 pbc="T T T"
Ti       2.88319650       3.28996953       1.17011236      -0.04335443       0.16423968      -0.03558529 
Ti       8.62627181       3.28996953       1.16382051       0.00021738       0.16423178      -0.00001188 
Ti      14.37711968       3.28996953       1.16382051       0.00022097       0.16426244      -0.00001105 
Ti       0.00000000       8.27034988       1.16382051       0.00005176       0.16400520      -0.00004188 
Ti       5.75084788       8.27034988       1.16382051       0.00005105       0.16449056      -0.00004367 
Ti      11.50169575       8.27034988       1.16382051      -0.00000932       0.16424720       0.00000003 
Ti      -2.87542393      13.25073023       1.16382051       0.00005105       0.16407185      -0.00004293 
Ti       2.87542394      13.25073023       1.16382051      -0.00000932       0.16424722       0.00000003 
Ti       8.62627181      13.25073023       1.16382051       0.00005176       0.16442251      -0.00004262 
Ti       2.87542394       3.28996953       5.81910256      -0.00014367       0.16413125       0.00001481 
Ti       8.62627181       3.28996953       5.81910256       0.00000311       0.16423070       0.00001169 
Ti      14.37711968       3.28996953       5.81910256      -0.00000860       0.16425062      -0.00000263 
Ti       0.00000000       8.27034988       5.81910256      -0.00000353       0.16424112      -0.00001096 
Ti       5.75084788       8.27034988       5.81910256      -0.00000812       0.16428462       0.00004224 
Ti      11.50169575       8.27034988       5.81910256      -0.00000835       0.16424721       0.00000003 
Ti      -2.87542393      13.25073023       5.81910256       0.00001539       0.16423745       0.00001242 
Ti       2.87542394      13.25073023       5.81910256      -0.00000835       0.16424721       0.00000003 
Ti       8.62627181      13.25073023       5.81910256      -0.00002706       0.16422161       0.00001814 
Ti       2.87542394       3.28996953      10.47438461      -0.00014448       0.16436155       0.00002485 
Ti       8.62627181       3.28996953      10.47438461      -0.00000857       0.16424381      -0.00000269 
Ti      14.37711968       3.28996953      10.47438461       0.00000231       0.16426339       0.00001091 
Ti       0.00000000       8.27034988      10.47438461      -0.00000829       0.16421113       0.00004064 
Ti       5.75084788       8.27034988      10.47438461      -0.00000353       0.16425323      -0.00001091 
Ti      11.50169575       8.27034988      10.47438461      -0.00000835       0.16424721       0.00000003 
Ti      -2.87542393      13.25073023      10.47438461      -0.00002707       0.16427277       0.00001814 
Ti       2.87542394      13.25073023      10.47438461      -0.00000835       0.16424721       0.00000003 
Ti       8.62627181      13.25073023      10.47438461       0.00001528       0.16425695       0.00001231 
Ti      -1.41148523       4.13517494       3.49146154      -0.14217413       0.08210754      -0.00016920 
Ti       4.33936264       4.13517494       3.49146154      -0.13589209       0.08529098       0.00979908 
Ti      10.09021051       4.13517494       3.49146154      -0.14219684       0.08213229       0.00002072 
Ti      -4.28690916       9.11555529       3.49146154      -0.14224679       0.08212694       0.00000026 
Ti       1.46393871       9.11555529       3.49146154      -0.14227540       0.08213667      -0.00001165 
Ti       7.21478658       9.11555529       3.49146154      -0.14222139       0.08216551       0.00000098 
Ti      -7.16233310      14.09593564       3.49146154      -0.14237800       0.08217570      -0.00011314 
Ti      -1.41148523      14.09593564       3.49146154      -0.14210923       0.08196515       0.00006936 
Ti       4.33936264      14.09593564       3.49146154      -0.14224952       0.08212457       0.00000176 
Ti      -1.41148523       4.13517494       8.14674359      -0.14224669       0.08212621      -0.00000271 
Ti       4.33936264       4.13517494       8.14674359      -0.14224640       0.08212677       0.00008992 
Ti      10.09021051       4.13517494       8.14674359      -0.14224676       0.08212623      -0.00000003 
Ti      -4.28690916       9.11555529       8.14674359      -0.14224676       0.08212623      -0.00000003 
Ti       1.46393871       9.11555529       8.14674359      -0.14224676       0.08212623      -0.00000003 
Ti       7.21478658       9.11555529       8.14674359      -0.14224676       0.08212623      -0.00000003 
Ti      -7.16233310      14.09593564       8.14674359      -0.14224675       0.08212626      -0.00000274 
Ti      -1.41148523      14.09593564       8.14674359      -0.14224676       0.08212623      -0.00000003 
Ti       4.33936264      14.09593564       8.14674359      -0.14224676       0.08212623      -0.00000003 
Ti      -1.41148523       4.13517494      12.80202564      -0.14155795       0.08198667       0.00019690 
Ti       4.33936264       4.13517494      12.80202564      -0.14365926       0.08171257       0.00116779 
Ti      10.09021051       4.13517494      12.80202564      -0.14220323       0.08213424      -0.00002045 
Ti      -4.28690916       9.11555529      12.80202564      -0.14224557       0.08212568      -0.00000032 
Ti       1.46393871       9.11555529      12.80202564      -0.14225275       0.08200379       0.00002014 
Ti       7.21478658       9.11555529      12.80202564      -0.14223784       0.08213567      -0.00000071 
Ti      -7.16233310      14.09593564      12.80202564      -0.14230846       0.08247138       0.00013803 
Ti      -1.41148523      14.09593564      12.80202564      -0.14221549       0.08205630      -0.00006076 
Ti       4.33936264      14.09593564      12.80202564      -0.14225239       0.08212287      -0.00000179 
Ti       1.41148523       4.13517494       3.49146154       0.14083734       0.08251844       0.00112969 
Ti       7.16233310       4.13517494       3.49146154       0.14291863       0.08225075       0.00018377 
Ti      12.91318097       4.13517494       3.49146154       0.14228962       0.08210847      -0.00002035 
Ti      -1.46393870       9.11555529       3.49146154       0.14225529       0.08210687      -0.00000075 
Ti       4.28690917       9.11555529       3.49146154       0.14223944       0.08224062       0.00002007 
Ti      10.03775704       9.11555529       3.49146154       0.14224760       0.08211697      -0.00000033 
Ti      -4.33936264      14.09593564       3.49146154       0.14218118       0.08177597       0.00013532 
Ti       1.41148523      14.09593564       3.49146154       0.14224065       0.08211981      -0.00000185 
Ti       7.16233310      14.09593564       3.49146154       0.14227761       0.08218596      -0.00006027 
Ti       1.41148523       4.13517494       8.14674359       0.14224646       0.08211600       0.00008876 
Ti       7.16233310       4.13517494       8.14674359       0.14224641       0.08211641      -0.00000280 
Ti      12.91318097       4.13517494       8.14674359       0.14224637       0.08211640      -0.00000003 
Ti      -1.46393870       9.11555529       8.14674359       0.14224637       0.08211640      -0.00000003 
Ti       4.28690917       9.11555529       8.14674359       0.14224637       0.08211640      -0.00000003 
Ti      10.03775704       9.11555529       8.14674359       0.14224637       0.08211640      -0.00000003 
Ti      -4.33936264      14.09593564       8.14674359       0.14224637       0.08211640      -0.00000277 
Ti       1.41148523      14.09593564       8.14674359       0.14224637       0.08211640      -0.00000003 
Ti       7.16233310      14.09593564       8.14674359       0.14224637       0.08211640      -0.00000003 
Ti       1.41148523       4.13517494      12.80202564       0.14845472       0.07907091       0.00951786 
Ti       7.16233310       4.13517494      12.80202564       0.14231303       0.08213268      -0.00016389 
Ti      12.91318097       4.13517494      12.80202564       0.14229551       0.08211039       0.00002060 
Ti      -1.46393870       9.11555529      12.80202564       0.14227088       0.08207845       0.00000101 
Ti       4.28690917       9.11555529      12.80202564       0.14221769       0.08210568      -0.00001153 
Ti      10.03775704       9.11555529      12.80202564       0.14224632       0.08211569       0.00000027 
Ti      -4.33936264      14.09593564      12.80202564       0.14211440       0.08206884      -0.00011258 
Ti       1.41148523      14.09593564      12.80202564       0.14224355       0.08211809       0.00000181 
Ti       7.16233310      14.09593564      12.80202564       0.14238303       0.08227628       0.00006870 
Ti       1.46393871       0.84520541       1.16382051      -0.13976084      -0.07714393      -0.00016272 
Ti       7.21478658       0.84520541       1.16382051      -0.14183117      -0.08235007      -0.00013001 
Ti      12.96563445       0.84520541       1.16382051      -0.14219035      -0.08208942       0.00000193 
Ti      -1.41148522       5.82558576       1.16382051      -0.14181117      -0.08235179      -0.00012734 
Ti       4.33936264       5.82558576       1.16382051      -0.14008900      -0.07821959      -0.00052360 
Ti      10.09021051       5.82558576       1.16382051      -0.14220426      -0.08209758       0.00000106 
Ti      -4.28690916      10.80596611       1.16382051      -0.14224615      -0.08212166       0.00000196 
Ti       1.46393871      10.80596611       1.16382051      -0.14224693      -0.08212215       0.00000104 
Ti       7.21478658      10.80596611       1.16382051      -0.14224614      -0.08211621      -0.00000025 
Ti       1.46393871       0.84520541       5.81910256      -0.14232547      -0.08219276       0.00004995 
Ti       7.21478658       0.84520541       5.81910256      -0.14216032      -0.08215901       0.00009199 
Ti      12.96563445       0.84520541       5.81910256      -0.14224751      -0.08211682       0.00000068 
Ti      -1.41148522       5.82558576       5.81910256      -0.14224583      -0.08211414      -0.00000888 
Ti       4.33936264       5.82558576       5.81910256      -0.14217448      -0.08187347       0.00043456 
Ti      10.09021051       5.82558576       5.81910256      -0.14224870      -0.08211876      -0.00000215 
Ti      -4.28690916      10.80596611       5.81910256      -0.14224648      -0.08211405      -0.00000165 
Ti       1.46393871      10.80596611       5.81910256      -0.14224598      -0.08211821      -0.00000099 
Ti       7.21478658      10.80596611       5.81910256      -0.14224593      -0.08211508       0.00000069 
Ti       1.46393871       0.84520541      10.47438461      -0.14223633      -0.08193159       0.00027692 
Ti       7.21478658       0.84520541      10.47438461      -0.14226579      -0.08211424       0.00000333 
Ti      12.96563445       0.84520541      10.47438461      -0.14225125      -0.08211788      -0.00000274 
Ti      -1.41148522       5.82558576      10.47438461      -0.14216329      -0.08214810       0.00010217 
Ti       4.33936264       5.82558576      10.47438461      -0.14239251      -0.08225549       0.00016002 
Ti      10.09021051       5.82558576      10.47438461      -0.14224753      -0.08211726       0.00000099 
Ti      -4.28690916      10.80596611      10.47438461      -0.14224611      -0.08211707      -0.00000045 
Ti       1.46393871      10.80596611      10.47438461      -0.14224736      -0.08211610      -0.00000015 
Ti       7.21478658      10.80596611      10.47438461      -0.14224665      -0.08211650      -0.00000038 
Ti       4.28690916       0.84520541       1.16382051       0.14471782      -0.08713053      -0.00019294 
Ti      10.03775703       0.84520541       1.16382051       0.14230354      -0.08215338       0.00000196 
Ti      15.78860490       0.84520541       1.16382051       0.14267197      -0.08188438      -0.00012849 
Ti       1.41148523       5.82558576       1.16382051       0.14440339      -0.08598670      -0.00050101 
Ti       7.16233310       5.82558576       1.16382051       0.14267388      -0.08189874      -0.00013117 
Ti      12.91318097       5.82558576       1.16382051       0.14228854      -0.08214498       0.00000100 
Ti      -1.46393871      10.80596611       1.16382051       0.14224705      -0.08212637      -0.00000022 
Ti       4.28690916      10.80596611       1.16382051       0.14224622      -0.08212049       0.00000102 
Ti      10.03775703      10.80596611       1.16382051       0.14224714      -0.08212084       0.00000193 
Ti       4.28690916       0.84520541       5.81910256       0.14225510      -0.08231247       0.00027691 
Ti      10.03775703       0.84520541       5.81910256       0.14224191      -0.08212472      -0.00000278 
Ti      15.78860490       0.84520541       5.81910256       0.14222757      -0.08212826       0.00000311 
Ti       1.41148523       5.82558576       5.81910256       0.14209917      -0.08198661       0.00016015 
Ti       7.16233310       5.82558576       5.81910256       0.14233206      -0.08209381       0.00010520 
Ti      12.91318097       5.82558576       5.81910256       0.14224570      -0.08212538       0.00000098 
Ti      -1.46393871      10.80596611       5.81910256       0.14224656      -0.08212612      -0.00000038 
Ti       4.28690916      10.80596611       5.81910256       0.14224584      -0.08212648      -0.00000012 
Ti      10.03775703      10.80596611       5.81910256       0.14224711      -0.08212556      -0.00000045 
Ti       4.28690916       0.84520541      10.47438461       0.14216690      -0.08204935       0.00005252 
Ti      10.03775703       0.84520541      10.47438461       0.14224571      -0.08212581       0.00000067 
Ti      15.78860490       0.84520541      10.47438461       0.14233222      -0.08208407       0.00009135 
Ti       1.41148523       5.82558576      10.47438461       0.14231937      -0.08236952       0.00043328 
Ti       7.16233310       5.82558576      10.47438461       0.14224717      -0.08212854      -0.00000870 
Ti      12.91318097       5.82558576      10.47438461       0.14224461      -0.08212396      -0.00000206 
Ti      -1.46393871      10.80596611      10.47438461       0.14224727      -0.08212750       0.00000067 
Ti       4.28690916      10.80596611      10.47438461       0.14224724      -0.08212442      -0.00000099 
Ti      10.03775703      10.80596611      10.47438461       0.14224673      -0.08212854      -0.00000162 
Ti       0.00000000       1.69041082       3.49146154      -0.00028213      -0.16453070       0.00032350 
Ti       5.75084787       1.69041082       3.49146154      -0.00160491      -0.16339821      -0.00131376 
Ti      11.50169574       1.69041082       3.49146154       0.00000617      -0.16424693      -0.00000003 
Ti      -2.87542393       6.67079117       3.49146154       0.00005782      -0.16428737      -0.00003304 
Ti       2.87542394       6.67079117       3.49146154      -0.00028206      -0.16451865      -0.00036868 
Ti       8.62627180       6.67079117       3.49146154       0.00011376      -0.16419041       0.00003418 
Ti      -5.75084787      11.65117152       3.49146154      -0.00000092      -0.16429879       0.00000080 
Ti       0.00000000      11.65117152       3.49146154       0.00000773      -0.16424674      -0.00000032 
Ti       5.75084787      11.65117152       3.49146154       0.00000820      -0.16424632       0.00000025 
Ti       0.00000000       1.69041082       8.14674359       0.00000864      -0.16424699      -0.00001511 
Ti       5.75084787       1.69041082       8.14674359       0.00000854      -0.16424736      -0.00001518 
Ti      11.50169574       1.69041082       8.14674359       0.00000831      -0.16424720      -0.00000003 
Ti      -2.87542393       6.67079117       8.14674359       0.00000831      -0.16424720      -0.00000003 
Ti       2.87542394       6.67079117       8.14674359       0.00000825      -0.16424726      -0.00001397 
Ti       8.62627180       6.67079117       8.14674359       0.00000831      -0.16424720      -0.00000003 
Ti      -5.75084787      11.65117152       8.14674359       0.00000831      -0.16424720      -0.00000003 
Ti       0.00000000      11.65117152       8.14674359       0.00000831      -0.16424720      -0.00000003 
Ti       5.75084787      11.65117152       8.14674359       0.00000831      -0.16424720      -0.00000003 
Ti       0.00000000       1.69041082      12.80202564      -0.00159114      -0.16508167      -0.00130026 
Ti       5.75084787       1.69041082      12.80202564      -0.00027419      -0.16396468       0.00032352 
Ti      11.50169574       1.69041082      12.80202564       0.00000620      -0.16424746      -0.00000002 
Ti      -2.87542393       6.67079117      12.80202564       0.00011103      -0.16430292       0.00003373 
Ti       2.87542394       6.67079117      12.80202564      -0.00028270      -0.16396993      -0.00037423 
Ti       8.62627180       6.67079117      12.80202564       0.00005816      -0.16420667      -0.00003346 
Ti      -5.75084787      11.65117152      12.80202564      -0.00000080      -0.16419576       0.00000089 
Ti       0.00000000      11.65117152      12.80202564       0.00000820      -0.16424802       0.00000026 
Ti       5.75084787      11.65117152      12.80202564       0.00000774      -0.16424765      -0.00000031 
Al      -0.00000288       3.32025523       1.16382051       0.01156896      -0.00011202      -0.00002864 
Al       5.75084499       3.32025523       1.16382051       0.01202547       0.00009449      -0.00007958 
Al      11.50169286       3.32025523       1.16382051       0.00002063      -0.00001104      -0.00000015 
Al      -2.87542681       8.30063558       1.16382051       0.00004372      -0.00003145      -0.00000396 
Al       2.87542106       8.30063558       1.16382051      -0.00010504      -0.00001096      -0.00008950 
Al       8.62626893       8.30063558       1.16382051       0.00004408       0.00000977      -0.00000416 
Al      -5.75085075      13.28101593       1.16382051      -0.00010458      -0.00001108      -0.00018663 
Al      -0.00000288      13.28101593       1.16382051       0.00003746      -0.00002932      -0.00000128 
Al       5.75084499      13.28101593       1.16382051       0.00003730       0.00000696      -0.00000125 
Al      -0.00000288       3.32025523       5.81910256      -0.00013475       0.00002623       0.00000966 
Al       5.75084499       3.32025523       5.81910256       0.00021565       0.00001142       0.00037061 
Al      11.50169286       3.32025523       5.81910256       0.00001954      -0.00001107       0.00000013 
Al      -2.87542681       8.30063558       5.81910256       0.00002048      -0.00001189      -0.00000108 
Al       2.87542106       8.30063558       5.81910256       0.00000411       0.00003332       0.00003936 
Al       8.62626893       8.30063558       5.81910256       0.00002560      -0.00000709       0.00000534 
Al      -5.75085075      13.28101593       5.81910256       0.00001250      -0.00012277       0.00008492 
Al      -0.00000288      13.28101593       5.81910256       0.00002121      -0.00001329       0.00000167 
Al       5.75084499      13.28101593       5.81910256       0.00001952      -0.00001058      -0.00000027 
Al      -0.00000288       3.32025523      10.47438461       0.00021552      -0.00003406       0.00036868 
Al       5.75084499       3.32025523      10.47438461      -0.00013456      -0.00004823       0.00000946 
Al      11.50169286       3.32025523      10.47438461       0.00001953      -0.00001100       0.00000013 
Al      -2.87542681       8.30063558      10.47438461       0.00002536      -0.00001484       0.00000514 
Al       2.87542106       8.30063558      10.47438461       0.00000449      -0.00005508       0.00003915 
Al       8.62626893       8.30063558      10.47438461       0.00002047      -0.00001018      -0.00000107 
Al      -5.75085075      13.28101593      10.47438461       0.00001264       0.00010057       0.00008476 
Al      -0.00000288      13.28101593      10.47438461       0.00001951      -0.00001149      -0.00000027 
Al       5.75084499      13.28101593      10.47438461       0.00002117      -0.00000881       0.00000164 
Al       2.87542681       1.66012512       3.49146154      -0.00028878      -0.00545050       0.00763423 
Al       8.62627468       1.66012512       3.49146154       0.00023021      -0.00009337       0.00012376 
Al      14.37712255       1.66012512       3.49146154       0.00014273       0.00008604      -0.00012321 
Al       0.00000288       6.64050547       3.49146154      -0.00003058      -0.00018935      -0.00022600 
Al       5.75085075       6.64050547       3.49146154       0.00030496       0.00062443       0.00032887 
Al      11.50169861       6.64050547       3.49146154      -0.00001840       0.00001112      -0.00000003 
Al      -2.87542106      11.62088582       3.49146154      -0.00001038      -0.00001150       0.00000636 
Al       2.87542681      11.62088582       3.49146154      -0.00001909       0.00001236      -0.00000004 
Al       8.62627468      11.62088582       3.49146154      -0.00001598       0.00002197      -0.00000650 
Al       2.87542681       1.66012512       8.14674359      -0.00001906       0.00001091       0.00015291 
Al       8.62627468       1.66012512       8.14674359      -0.00001909       0.00001103      -0.00000004 
Al      14.37712255       1.66012512       8.14674359      -0.00001909       0.00001103      -0.00000004 
Al       0.00000288       6.64050547       8.14674359      -0.00001910       0.00001103       0.00000266 
Al       5.75085075       6.64050547       8.14674359      -0.00001909       0.00001103       0.00000277 
Al      11.50169861       6.64050547       8.14674359      -0.00001909       0.00001103      -0.00000004 
Al      -2.87542106      11.62088582       8.14674359      -0.00001909       0.00001103      -0.00000004 
Al       2.87542681      11.62088582       8.14674359      -0.00001909       0.00001103      -0.00000004 
Al       8.62627468      11.62088582       8.14674359      -0.00001909       0.00001103      -0.00000004 
Al       2.87542681       1.66012512      12.80202564      -0.00023854       0.00534402       0.00749232 
Al       8.62627468       1.66012512      12.80202564       0.00014347      -0.00006438      -0.00012414 
Al      14.37712255       1.66012512      12.80202564       0.00022843       0.00011426       0.00012284 
Al       0.00000288       6.64050547      12.80202564       0.00030945      -0.00060342       0.00033162 
Al       5.75085075       6.64050547      12.80202564      -0.00003133       0.00021199      -0.00022691 
Al      11.50169861       6.64050547      12.80202564      -0.00001841       0.00001094      -0.00000004 
Al      -2.87542106      11.62088582      12.80202564      -0.00001602       0.00000014      -0.00000648 
Al       2.87542681      11.62088582      12.80202564      -0.00001909       0.00000968      -0.00000003 
Al       8.62627468      11.62088582      12.80202564      -0.00001043       0.00003340       0.00000638 
