216
Lattice="17.25254361 0.0 0.0 -8.626271804999996 14.94114104615889 0.0 0.0 0.0 13.96584615" Properties=species:S:1:pos:R:3:forces:R:3 pbc="T T T"
Ti       2.87542394       3.28996953       1.16382051       0.00022141       0.16417832      -0.00036545 
Ti       8.62627181       3.28996953       1.16382051       0.00005320       0.16425007       0.00000392 
Ti      14.37711968       3.28996953       1.16382051       0.00579733       0.16870227       0.01000610 
Ti       0.00000000       8.27034988       1.16382051      -0.00020645       0.16411162      -0.00002993 
Ti       5.75084788       8.27034988       1.16382051      -0.00001116       0.16424566       0.00000184 
Ti      11.50169575       8.27034988       1.16382051       0.00012748       0.16409411       0.00006897 
Ti      -2.87542393      13.25073023       1.16382051      -0.00000752       0.16424491      -0.00000075 
Ti       2.87542394      13.25073023       1.16382051       0.00000921       0.16427056       0.00001011 
Ti       8.62627181      13.25073023       1.16382051      -0.00003883       0.16426364      -0.00000936 
Ti       2.87542394       3.28996953       5.81910256       0.00050044       0.16409118       0.00038579 
Ti       8.62627181       3.28996953       5.81910256       0.00002121       0.16425077      -0.00000356 
Ti      14.37711968       3.28996953       5.81910256      -0.00100924       0.16386902       0.00063791 
Ti       0.00000000       8.27034988       5.81910256      -0.00000610       0.16469944       0.00005239 
Ti       5.75084788       8.27034988       5.81910256      -0.00001409       0.16424401      -0.00000177 
Ti      11.50169575       8.27034988       5.81910256       0.00002341       0.16417973      -0.00006042 
Ti      -2.87542393      13.25073023       5.81910256      -0.00000801       0.16424662       0.00000081 
Ti       2.87542394      13.25073023       5.81910256       0.00000790       0.16426445      -0.00000975 
Ti       8.62627181      13.25073023       5.81910256      -0.00001325       0.16412600       0.00001802 
Ti       2.87542394       3.28996953      10.47438461      -0.00000831       0.16424720      -0.00000274 
Ti       8.62627181       3.28996953      10.47438461      -0.00000835       0.16424721       0.00000003 
Ti      14.37711968       3.28996953      10.47438461      -0.00000826       0.16424771       0.00008881 
Ti       0.00000000       8.27034988      10.47438461      -0.00000835       0.16424721      -0.00000271 
Ti       5.75084788       8.27034988      10.47438461      -0.00000835       0.16424721       0.00000003 
Ti      11.50169575       8.27034988      10.47438461      -0.00000835       0.16424721       0.00000003 
Ti      -2.87542393      13.25073023      10.47438461      -0.00000835       0.16424721       0.00000003 
Ti       2.87542394      13.25073023      10.47438461      -0.00000835       0.16424721       0.00000003 
Ti       8.62627181      13.25073023      10.47438461      -0.00000835       0.16424721       0.00000003 
Ti      -1.40371267       4.13517494       3.49775339      -0.18665652       0.08281230      -0.03572178 
Ti       4.33936264       4.13517494       3.49146154      -0.14184472       0.08217229      -0.00004343 
Ti      10.09021051       4.13517494       3.49146154      -0.14184682       0.08210446      -0.00004153 
Ti      -4.28690916       9.11555529       3.49146154      -0.14220701       0.08196322      -0.00004242 
Ti       1.46393871       9.11555529       3.49146154      -0.14220773       0.08221917      -0.00001158 
Ti       7.21478658       9.11555529       3.49146154      -0.14224599       0.08212522      -0.00000003 
Ti      -7.16233310      14.09593564       3.49146154      -0.14220803       0.08189472      -0.00004326 
Ti      -1.41148523      14.09593564       3.49146154      -0.14224593       0.08212520      -0.00000003 
Ti       4.33936264      14.09593564       3.49146154      -0.14220679       0.08225030      -0.00001117 
Ti      -1.41148523       4.13517494       8.14674359      -0.14225219       0.08205127      -0.00011126 
Ti       4.33936264       4.13517494       8.14674359      -0.14220047       0.08214719       0.00003056 
Ti      10.09021051       4.13517494       8.14674359      -0.14223897       0.08211794      -0.00001665 
Ti      -4.28690916       9.11555529       8.14674359      -0.14225290       0.08213646       0.00000938 
Ti       1.46393871       9.11555529       8.14674359      -0.14223608       0.08211992       0.00000090 
Ti       7.21478658       9.11555529       8.14674359      -0.14224676       0.08212623      -0.00000003 
Ti      -7.16233310      14.09593564       8.14674359      -0.14223364       0.08207394       0.00003335 
Ti      -1.41148523      14.09593564       8.14674359      -0.14224676       0.08212623      -0.00000003 
Ti       4.33936264      14.09593564       8.14674359      -0.14224181       0.08212987      -0.00000616 
Ti      -1.41148523       4.13517494      12.80202564      -0.14245428       0.08216748       0.00014567 
Ti       4.33936264       4.13517494      12.80202564      -0.14225272       0.08212798       0.00000023 
Ti      10.09021051       4.13517494      12.80202564      -0.14221556       0.08209899       0.00004589 
Ti      -4.28690916       9.11555529      12.80202564      -0.14222422       0.08212524       0.00002069 
Ti       1.46393871       9.11555529      12.80202564      -0.14225299       0.08211662       0.00000767 
Ti       7.21478658       9.11555529      12.80202564      -0.14224676       0.08212623      -0.00000003 
Ti      -7.16233310      14.09593564      12.80202564      -0.14224317       0.08212875      -0.00000261 
Ti      -1.41148523      14.09593564      12.80202564      -0.14224676       0.08212623      -0.00000003 
Ti       4.33936264      14.09593564      12.80202564      -0.14224745       0.08214574       0.00001437 
Ti       1.41148523       4.13517494       3.49146154       0.15365899       0.08221491      -0.00020229 
Ti       7.16233310       4.13517494       3.49146154       0.14224926       0.08211780      -0.00000026 
Ti      12.91318097       4.13517494       3.49146154       0.15179276       0.08257353      -0.00048761 
Ti      -1.46393870       9.11555529       3.49146154       0.14210995       0.08203250      -0.00012897 
Ti       4.28690917       9.11555529       3.49146154       0.14227367       0.08213742       0.00000190 
Ti      10.03775704       9.11555529       3.49146154       0.14226695       0.08208606       0.00000097 
Ti      -4.33936264      14.09593564       3.49146154       0.14227393       0.08207195       0.00000193 
Ti       1.41148523      14.09593564       3.49146154       0.14226729       0.08213444       0.00000096 
Ti       7.16233310      14.09593564       3.49146154       0.14210953       0.08202043      -0.00012942 
Ti       1.41148523       4.13517494       8.14674359       0.14240450       0.08206768       0.00032986 
Ti       7.16233310       4.13517494       8.14674359       0.14224611       0.08211609      -0.00000088 
Ti      12.91318097       4.13517494       8.14674359       0.14207746       0.08211657       0.00002471 
Ti      -1.46393870       9.11555529       8.14674359       0.14224492       0.08215805       0.00003885 
Ti       4.28690917       9.11555529       8.14674359       0.14224305       0.08211303      -0.00000259 
Ti      10.03775704       9.11555529       8.14674359       0.14224566       0.08211711       0.00000051 
Ti      -4.33936264      14.09593564       8.14674359       0.14224321       0.08211894      -0.00000288 
Ti       1.41148523      14.09593564       8.14674359       0.14224602       0.08211671       0.00000007 
Ti       7.16233310      14.09593564       8.14674359       0.14223187       0.08204580       0.00005492 
Ti       1.41148523       4.13517494      12.80202564       0.14213524       0.08212332      -0.00000386 
Ti       7.16233310       4.13517494      12.80202564       0.14224766       0.08211602       0.00000105 
Ti      12.91318097       4.13517494      12.80202564       0.14251848       0.08211493       0.00056653 
Ti      -1.46393870       9.11555529      12.80202564       0.14223308       0.08206848       0.00005565 
Ti       4.28690917       9.11555529      12.80202564       0.14224588       0.08211577       0.00000039 
Ti      10.03775704       9.11555529      12.80202564       0.14224455       0.08211934      -0.00000174 
Ti      -4.33936264      14.09593564      12.80202564       0.14224567       0.08211708       0.00000064 
Ti       1.41148523      14.09593564      12.80202564       0.14224422       0.08211645      -0.00000129 
Ti       7.16233310      14.09593564      12.80202564       0.14224602       0.08215910       0.00003990 
Ti       1.46393871       0.84520541       1.16382051      -0.14228940      -0.08226901      -0.00024154 
Ti       7.21478658       0.84520541       1.16382051      -0.14224382      -0.08211544      -0.00000104 
Ti      12.96563445       0.84520541       1.16382051      -0.14196992      -0.08158910       0.00015078 
Ti      -1.41148522       5.82558576       1.16382051      -0.14315064      -0.08664859       0.00586762 
Ti       4.33936264       5.82558576       1.16382051      -0.14213346      -0.08208261      -0.00007470 
Ti      10.09021051       5.82558576       1.16382051      -0.14200682      -0.08219958       0.00008457 
Ti      -4.28690916      10.80596611       1.16382051      -0.14222997      -0.08214545       0.00000309 
Ti       1.46393871      10.80596611       1.16382051      -0.14224077      -0.08209969      -0.00001043 
Ti       7.21478658      10.80596611       1.16382051      -0.14224640      -0.08211816       0.00000001 
Ti       1.46393871       0.84520541       5.81910256      -0.14207387      -0.08246901       0.00026296 
Ti       7.21478658       0.84520541       5.81910256      -0.14224551      -0.08211585       0.00000110 
Ti      12.96563445       0.84520541       5.81910256      -0.14238266      -0.08206038      -0.00012442 
Ti      -1.41148522       5.82558576       5.81910256      -0.14238774      -0.07823980       0.00493538 
Ti       4.33936264       5.82558576       5.81910256      -0.14200091      -0.08203578       0.00008345 
Ti      10.09021051       5.82558576       5.81910256      -0.14213236      -0.08215317      -0.00007605 
Ti      -4.28690916      10.80596611       5.81910256      -0.14224697      -0.08211737      -0.00000272 
Ti       1.46393871      10.80596611       5.81910256      -0.14223600      -0.08209530       0.00001080 
Ti       7.21478658      10.80596611       5.81910256      -0.14224644      -0.08211481       0.00000006 
Ti       1.46393871       0.84520541      10.47438461      -0.14224640      -0.08211641      -0.00000273 
Ti       7.21478658       0.84520541      10.47438461      -0.14224642      -0.08211639       0.00000003 
Ti      12.96563445       0.84520541      10.47438461      -0.14224638      -0.08211635      -0.00000267 
Ti      -1.41148522       5.82558576      10.47438461      -0.14224711      -0.08211630       0.00008939 
Ti       4.33936264       5.82558576      10.47438461      -0.14224642      -0.08211639       0.00000003 
Ti      10.09021051       5.82558576      10.47438461      -0.14224642      -0.08211639       0.00000003 
Ti      -4.28690916      10.80596611      10.47438461      -0.14224642      -0.08211639       0.00000003 
Ti       1.46393871      10.80596611      10.47438461      -0.14224642      -0.08211639       0.00000003 
Ti       7.21478658      10.80596611      10.47438461      -0.14224642      -0.08211639       0.00000003 
Ti       4.28690916       0.84520541       1.16382051       0.14228961      -0.08215633      -0.00005488 
Ti      10.03775703       0.84520541       1.16382051       0.14233321      -0.08205424       0.00002552 
Ti      15.78860490       0.84520541       1.16382051       0.14210369      -0.08279541      -0.00060446 
Ti       1.41148523       5.82558576       1.16382051       0.14179738      -0.08220648       0.00021161 
Ti       7.16233310       5.82558576       1.16382051       0.14224847      -0.08212696       0.00000087 
Ti      12.91318097       5.82558576       1.16382051       0.14138124      -0.08179474      -0.00066313 
Ti      -1.46393871      10.80596611       1.16382051       0.14222380      -0.08214783      -0.00000786 
Ti       4.28690916      10.80596611       1.16382051       0.14224667      -0.08212739       0.00000032 
Ti      10.03775703      10.80596611       1.16382051       0.14224795      -0.08212755       0.00000058 
Ti       4.28690916       0.84520541       5.81910256       0.14237971      -0.08220842       0.00005671 
Ti      10.03775703       0.84520541       5.81910256       0.14229328      -0.08209219      -0.00002472 
Ti      15.78860490       0.84520541       5.81910256       0.14228477      -0.08136824      -0.00037933 
Ti       1.41148523       5.82558576       5.81910256       0.14063985      -0.08308241      -0.00120211 
Ti       7.16233310       5.82558576       5.81910256       0.14224713      -0.08212673      -0.00000081 
Ti      12.91318097       5.82558576       5.81910256       0.14184879      -0.08206432      -0.00007432 
Ti      -1.46393871      10.80596611       5.81910256       0.14223698      -0.08209307       0.00000868 
Ti       4.28690916      10.80596611       5.81910256       0.14224621      -0.08212714      -0.00000026 
Ti      10.03775703      10.80596611       5.81910256       0.14224706      -0.08212649      -0.00000052 
Ti       4.28690916       0.84520541      10.47438461       0.14224680      -0.08212623       0.00000003 
Ti      10.03775703       0.84520541      10.47438461       0.14224680      -0.08212623       0.00000003 
Ti      15.78860490       0.84520541      10.47438461       0.14224673      -0.08212616      -0.00001509 
Ti       1.41148523       5.82558576      10.47438461       0.14224700      -0.08212606      -0.00001512 
Ti       7.16233310       5.82558576      10.47438461       0.14224680      -0.08212623       0.00000003 
Ti      12.91318097       5.82558576      10.47438461       0.14224712      -0.08212646      -0.00001389 
Ti      -1.46393871      10.80596611      10.47438461       0.14224680      -0.08212623       0.00000003 
Ti       4.28690916      10.80596611      10.47438461       0.14224680      -0.08212623       0.00000003 
Ti      10.03775703      10.80596611      10.47438461       0.14224680      -0.08212623       0.00000003 
Ti       0.00000000       1.69041082       3.49146154       0.00248129      -0.16945294      -0.00018687 
Ti       5.75084787       1.69041082       3.49146154       0.00006545      -0.16425130       0.00000194 
Ti      11.50169574       1.69041082       3.49146154       0.00043204      -0.16382881      -0.00012706 
Ti      -2.87542393       6.67079117       3.49146154       0.00216624      -0.16901711      -0.00049863 
Ti       2.87542394       6.67079117       3.49146154       0.00043586      -0.16383711      -0.00013018 
Ti       8.62627180       6.67079117       3.49146154       0.00004947      -0.16425312       0.00000099 
Ti      -5.75084787      11.65117152       3.49146154       0.00000857      -0.16425013      -0.00000028 
Ti       0.00000000      11.65117152       3.49146154       0.00000776      -0.16422875       0.00000100 
Ti       5.75084787      11.65117152       3.49146154       0.00000861      -0.16421880       0.00000188 
Ti       0.00000000       1.69041082       8.14674359       0.00006439      -0.16436307       0.00021575 
Ti       5.75084787       1.69041082       8.14674359       0.00000385      -0.16424520      -0.00000349 
Ti      11.50169574       1.69041082       8.14674359       0.00000584      -0.16423760      -0.00001747 
Ti      -2.87542393       6.67079117       8.14674359      -0.00013991      -0.16410742       0.00016097 
Ti       2.87542394       6.67079117       8.14674359       0.00009654      -0.16418051       0.00009945 
Ti       8.62627180       6.67079117       8.14674359       0.00000788      -0.16424754       0.00000009 
Ti      -5.75084787      11.65117152       8.14674359       0.00000800      -0.16424643      -0.00000035 
Ti       0.00000000      11.65117152       8.14674359       0.00000840      -0.16424932      -0.00000149 
Ti       5.75084787      11.65117152       8.14674359       0.00000891      -0.16424572      -0.00000086 
Ti       0.00000000       1.69041082      12.80202564      -0.00011735      -0.16415779       0.00010897 
Ti       5.75084787       1.69041082      12.80202564       0.00000671      -0.16424640       0.00000124 
Ti      11.50169574       1.69041082      12.80202564       0.00007657      -0.16418337       0.00011037 
Ti      -2.87542393       6.67079117      12.80202564       0.00008218      -0.16448739       0.00043084 
Ti       2.87542394       6.67079117      12.80202564       0.00000504      -0.16424962      -0.00000419 
Ti       8.62627180       6.67079117      12.80202564       0.00000537      -0.16424768      -0.00000133 
Ti      -5.75084787      11.65117152      12.80202564       0.00000885      -0.16424775       0.00000053 
Ti       0.00000000      11.65117152      12.80202564       0.00000771      -0.16424758       0.00000024 
Ti       5.75084787      11.65117152      12.80202564       0.00000795      -0.16424951      -0.00000132 
Al      -0.00000288       3.32025523       1.16382051      -0.00148898       0.00072290       0.00207651 
Al       5.75084499       3.32025523       1.16382051       0.00005740      -0.00001178      -0.00001847 
Al      11.50169286       3.32025523       1.16382051       0.00081002       0.00011754       0.00040674 
Al      -2.87542681       8.30063558       1.16382051       0.00002880      -0.00041745       0.00012699 
Al       2.87542106       8.30063558       1.16382051       0.00008002       0.00005620      -0.00007489 
Al       8.62626893       8.30063558       1.16382051       0.00002710      -0.00001563       0.00000410 
Al      -5.75085075      13.28101593       1.16382051       0.00002730      -0.00003022      -0.00001196 
Al      -0.00000288      13.28101593       1.16382051       0.00001944      -0.00001082       0.00000013 
Al       5.75084499      13.28101593       1.16382051       0.00001675       0.00012491       0.00004880 
Al      -0.00000288       3.32025523       5.81910256       0.00801615      -0.00479456       0.01336480 
Al       5.75084499       3.32025523       5.81910256       0.00007051      -0.00001271       0.00001849 
Al      11.50169286       3.32025523       5.81910256       0.00028015       0.00003061      -0.00030001 
Al      -2.87542681       8.30063558       5.81910256      -0.00016108       0.00008291      -0.00002207 
Al       2.87542106       8.30063558       5.81910256       0.00014806       0.00011667       0.00007466 
Al       8.62626893       8.30063558       5.81910256       0.00002480      -0.00001430      -0.00000402 
Al      -5.75085075      13.28101593       5.81910256       0.00003459      -0.00004102       0.00001198 
Al      -0.00000288      13.28101593       5.81910256       0.00001929      -0.00001073      -0.00000005 
Al       5.75084499      13.28101593       5.81910256      -0.00000168       0.00003640      -0.00004903 
Al      -0.00000288       3.32025523      10.47438461       0.00001921      -0.00001106       0.00015367 
Al       5.75084499       3.32025523      10.47438461       0.00001914      -0.00001104       0.00000004 
Al      11.50169286       3.32025523      10.47438461       0.00001913      -0.00001104       0.00000271 
Al      -2.87542681       8.30063558      10.47438461       0.00001914      -0.00001103       0.00000276 
Al       2.87542106       8.30063558      10.47438461       0.00001914      -0.00001104       0.00000004 
Al       8.62626893       8.30063558      10.47438461       0.00001914      -0.00001104       0.00000004 
Al      -5.75085075      13.28101593      10.47438461       0.00001914      -0.00001104       0.00000004 
Al      -0.00000288      13.28101593      10.47438461       0.00001914      -0.00001104       0.00000004 
Al       5.75084499      13.28101593      10.47438461       0.00001914      -0.00001104       0.00000004 
Al       2.87542681       1.66012512       3.49146154       0.00055003      -0.00038968      -0.00018835 
Al       8.62627468       1.66012512       3.49146154       0.00002624       0.00003100      -0.00000399 
Al      14.37712255       1.66012512       3.49146154       0.00311381       0.00535708      -0.00004018 
Al       0.00000288       6.64050547       3.49146154       0.00268888       0.00488271      -0.00006562 
Al       5.75085075       6.64050547       3.49146154       0.00001665       0.00002416      -0.00000135 
Al      11.50169861       6.64050547       3.49146154       0.00047130      -0.00034297      -0.00008870 
Al      -2.87542106      11.62088582       3.49146154      -0.00001910      -0.00000698      -0.00000409 
Al       2.87542681      11.62088582       3.49146154      -0.00001892       0.00001178      -0.00000022 
Al       8.62627468      11.62088582       3.49146154      -0.00001928      -0.00000132      -0.00000134 
Al       2.87542681       1.66012512       8.14674359       0.00015203      -0.00009167       0.00016324 
Al       8.62627468       1.66012512       8.14674359      -0.00001585       0.00001286      -0.00000265 
Al      14.37712255       1.66012512       8.14674359      -0.00021224      -0.00011721       0.00012656 
Al       0.00000288       6.64050547       8.14674359       0.00001230       0.00025726       0.00030683 
Al       5.75085075       6.64050547       8.14674359      -0.00001604       0.00001179       0.00000165 
Al      11.50169861       6.64050547       8.14674359      -0.00002928       0.00000836      -0.00000658 
Al      -2.87542106      11.62088582       8.14674359      -0.00001919       0.00001177       0.00000049 
Al       2.87542681      11.62088582       8.14674359      -0.00001897       0.00001119       0.00000002 
Al       8.62627468      11.62088582       8.14674359      -0.00001879       0.00000976       0.00000067 
Al       2.87542681       1.66012512      12.80202564      -0.00004251       0.00002073       0.00000756 
Al       8.62627468       1.66012512      12.80202564      -0.00001091       0.00001558       0.00000652 
Al      14.37712255       1.66012512      12.80202564       0.00001611       0.00015623       0.00025241 
Al       0.00000288       6.64050547      12.80202564      -0.00011059      -0.00007703       0.00007299 
Al       5.75085075       6.64050547      12.80202564      -0.00001846       0.00001122      -0.00000040 
Al      11.50169861       6.64050547      12.80202564       0.00004699      -0.00003546       0.00008451 
Al      -2.87542106      11.62088582      12.80202564      -0.00001908       0.00000600       0.00000349 
Al       2.87542681      11.62088582      12.80202564      -0.00001903       0.00001122       0.00000009 
Al       8.62627468      11.62088582      12.80202564      -0.00001950       0.00001210       0.00000057 
