216
Lattice="17.25254361 0.0 0.0 -8.626271804999996 14.94114104615889 0.0 0.0 0.0 13.96584615" Properties=species:S:1:pos:R:3:forces:R:3 pbc="T T T"
Ti       2.87542394       3.28996953       1.16382051      -0.00023991       0.16431755       0.00036540 
Ti       8.62627181       3.28996953       1.16382051      -0.00007296       0.16424420      -0.00000397 
Ti      14.37711968       3.28996953       1.16382051      -0.00596153       0.15965665      -0.01030434 
Ti       0.00000000       8.27034988       1.16382051       0.00019060       0.16438203       0.00003040 
Ti       5.75084788       8.27034988       1.16382051      -0.00000561       0.16424873      -0.00000173 
Ti      11.50169575       8.27034988       1.16382051      -0.00014573       0.16440233      -0.00007035 
Ti      -2.87542393      13.25073023       1.16382051      -0.00000916       0.16424951       0.00000079 
Ti       2.87542394      13.25073023       1.16382051      -0.00002604       0.16422362      -0.00000999 
Ti       8.62627181      13.25073023       1.16382051       0.00002195       0.16423118       0.00000949 
Ti       2.87542394       3.28996953       5.81910256      -0.00053861       0.16440662      -0.00039275 
Ti       8.62627181       3.28996953       5.81910256      -0.00003847       0.16424353       0.00000371 
Ti      14.37711968       3.28996953       5.81910256       0.00100811       0.16463498      -0.00066619 
Ti       0.00000000       8.27034988       5.81910256      -0.00001304       0.16379218      -0.00005568 
Ti       5.75084788       8.27034988       5.81910256      -0.00000270       0.16425036       0.00000177 
Ti      11.50169575       8.27034988       5.81910256      -0.00004006       0.16431559       0.00006176 
Ti      -2.87542393      13.25073023       5.81910256      -0.00000869       0.16424778      -0.00000073 
Ti       2.87542394      13.25073023       5.81910256      -0.00002456       0.16423008       0.00000973 
Ti       8.62627181      13.25073023       5.81910256      -0.00000378       0.16436760      -0.00001797 
Ti       2.87542394       3.28996953      10.47438461      -0.00000842       0.16424722       0.00000271 
Ti       8.62627181       3.28996953      10.47438461      -0.00000835       0.16424721       0.00000003 
Ti      14.37711968       3.28996953      10.47438461      -0.00000871       0.16424655      -0.00008993 
Ti       0.00000000       8.27034988      10.47438461      -0.00000836       0.16424718       0.00000274 
Ti       5.75084788       8.27034988      10.47438461      -0.00000835       0.16424721       0.00000003 
Ti      11.50169575       8.27034988      10.47438461      -0.00000835       0.16424721       0.00000003 
Ti      -2.87542393      13.25073023      10.47438461      -0.00000835       0.16424721       0.00000003 
Ti       2.87542394      13.25073023      10.47438461      -0.00000835       0.16424721       0.00000003 
Ti       8.62627181      13.25073023      10.47438461      -0.00000835       0.16424721       0.00000003 
Ti      -1.41925779       4.13517494       3.48516969      -0.09798229       0.08166427       0.03545391 
Ti       4.33936264       4.13517494       3.49146154      -0.14264731       0.08208132       0.00004218 
Ti      10.09021051       4.13517494       3.49146154      -0.14264942       0.08214818       0.00004409 
Ti      -4.28690916       9.11555529       3.49146154      -0.14228561       0.08229025       0.00004318 
Ti       1.46393871       9.11555529       3.49146154      -0.14228669       0.08203269       0.00001139 
Ti       7.21478658       9.11555529       3.49146154      -0.14224758       0.08212726      -0.00000003 
Ti      -7.16233310      14.09593564       3.49146154      -0.14228664       0.08235644       0.00004234 
Ti      -1.41148523      14.09593564       3.49146154      -0.14224752       0.08212724      -0.00000003 
Ti       4.33936264      14.09593564       3.49146154      -0.14228575       0.08200249       0.00001181 
Ti      -1.41148523       4.13517494       8.14674359      -0.14223643       0.08219889       0.00009554 
Ti       4.33936264       4.13517494       8.14674359      -0.14229224       0.08210554      -0.00002984 
Ti      10.09021051       4.13517494       8.14674359      -0.14225470       0.08213459       0.00001689 
Ti      -4.28690916       9.11555529       8.14674359      -0.14224060       0.08211605      -0.00000946 
Ti       1.46393871       9.11555529       8.14674359      -0.14225727       0.08213261      -0.00000081 
Ti       7.21478658       9.11555529       8.14674359      -0.14224676       0.08212623      -0.00000003 
Ti      -7.16233310      14.09593564       8.14674359      -0.14225966       0.08217785      -0.00003283 
Ti      -1.41148523      14.09593564       8.14674359      -0.14224676       0.08212623      -0.00000003 
Ti       4.33936264      14.09593564       8.14674359      -0.14225170       0.08212262       0.00000608 
Ti      -1.41148523       4.13517494      12.80202564      -0.14203962       0.08208479      -0.00014034 
Ti       4.33936264       4.13517494      12.80202564      -0.14224089       0.08212444      -0.00000027 
Ti      10.09021051       4.13517494      12.80202564      -0.14227978       0.08215443      -0.00004856 
Ti      -4.28690916       9.11555529      12.80202564      -0.14226976       0.08212743      -0.00002137 
Ti       1.46393871       9.11555529      12.80202564      -0.14224046       0.08213593      -0.00000778 
Ti       7.21478658       9.11555529      12.80202564      -0.14224676       0.08212623      -0.00000003 
Ti      -7.16233310      14.09593564      12.80202564      -0.14225039       0.08212388       0.00000266 
Ti      -1.41148523      14.09593564      12.80202564      -0.14224676       0.08212623      -0.00000003 
Ti       4.33936264      14.09593564      12.80202564      -0.14224622       0.08210598      -0.00001503 
Ti       1.41148523       4.13517494       3.49146154       0.13107844       0.08201690       0.00015400 
Ti       7.16233310       4.13517494       3.49146154       0.14224337       0.08211502       0.00000026 
Ti      12.91318097       4.13517494       3.49146154       0.13245168       0.08165557       0.00053764 
Ti      -1.46393870       9.11555529       3.49146154       0.14238333       0.08220001       0.00012959 
Ti       4.28690917       9.11555529       3.49146154       0.14221916       0.08209564      -0.00000193 
Ti      10.03775704       9.11555529       3.49146154       0.14222508       0.08214789      -0.00000103 
Ti      -4.33936264      14.09593564       3.49146154       0.14221942       0.08215974      -0.00000190 
Ti       1.41148523      14.09593564       3.49146154       0.14222541       0.08209813      -0.00000104 
Ti       7.16233310      14.09593564       3.49146154       0.14238291       0.08221323       0.00012915 
Ti       1.41148523       4.13517494       8.14674359       0.14208474       0.08216232      -0.00033342 
Ti       7.16233310       4.13517494       8.14674359       0.14224659       0.08211670       0.00000081 
Ti      12.91318097       4.13517494       8.14674359       0.14241513       0.08211623      -0.00002473 
Ti      -1.46393870       9.11555529       8.14674359       0.14224767       0.08207504      -0.00003867 
Ti       4.28690917       9.11555529       8.14674359       0.14224967       0.08211975       0.00000252 
Ti      10.03775704       9.11555529       8.14674359       0.14224708       0.08211570      -0.00000056 
Ti      -4.33936264      14.09593564       8.14674359       0.14224943       0.08211395       0.00000273 
Ti       1.41148523      14.09593564       8.14674359       0.14224672       0.08211608      -0.00000012 
Ti       7.16233310      14.09593564       8.14674359       0.14226075       0.08218671      -0.00005488 
Ti       1.41148523       4.13517494      12.80202564       0.14235816       0.08210940       0.00000326 
Ti       7.16233310       4.13517494      12.80202564       0.14224499       0.08211680      -0.00000115 
Ti      12.91318097       4.13517494      12.80202564       0.14197458       0.08211755      -0.00057196 
Ti      -1.46393870       9.11555529      12.80202564       0.14226006       0.08216480      -0.00005650 
Ti       4.28690917       9.11555529      12.80202564       0.14224687       0.08211704      -0.00000045 
Ti      10.03775704       9.11555529      12.80202564       0.14224819       0.08211344       0.00000169 
Ti      -4.33936264      14.09593564      12.80202564       0.14224707       0.08211573      -0.00000070 
Ti       1.41148523      14.09593564      12.80202564       0.14224857       0.08211632       0.00000126 
Ti       7.16233310      14.09593564      12.80202564       0.14224687       0.08207356      -0.00003997 
Ti       1.46393871       0.84520541       1.16382051      -0.14220422      -0.08196585       0.00023979 
Ti       7.21478658       0.84520541       1.16382051      -0.14224907      -0.08211740       0.00000109 
Ti      12.96563445       0.84520541       1.16382051      -0.14251444      -0.08264065      -0.00014581 
Ti      -1.41148522       5.82558576       1.16382051      -0.14129633      -0.07750919      -0.00593235 
Ti       4.33936264       5.82558576       1.16382051      -0.14235852      -0.08214970       0.00007370 
Ti      10.09021051       5.82558576       1.16382051      -0.14249045      -0.08203028      -0.00008645 
Ti      -4.28690916      10.80596611       1.16382051      -0.14226323      -0.08208664      -0.00000308 
Ti       1.46393871      10.80596611       1.16382051      -0.14225207      -0.08213317       0.00001053 
Ti       7.21478658      10.80596611       1.16382051      -0.14224643      -0.08211464       0.00000004 
Ti       1.46393871       0.84520541       5.81910256      -0.14243020      -0.08175358      -0.00026609 
Ti       7.21478658       0.84520541       5.81910256      -0.14224731      -0.08211693      -0.00000103 
Ti      12.96563445       0.84520541       5.81910256      -0.14210930      -0.08217325       0.00012445 
Ti      -1.41148522       5.82558576       5.81910256      -0.14214177      -0.08593658      -0.00487783 
Ti       4.33936264       5.82558576       5.81910256      -0.14248896      -0.08219546      -0.00008210 
Ti      10.09021051       5.82558576       5.81910256      -0.14236184      -0.08207934       0.00007783 
Ti      -4.28690916      10.80596611       5.81910256      -0.14224580      -0.08211544       0.00000282 
Ti       1.46393871      10.80596611       5.81910256      -0.14225679      -0.08213747      -0.00001078 
Ti       7.21478658      10.80596611       5.81910256      -0.14224639      -0.08211799      -0.00000000 
Ti       1.46393871       0.84520541      10.47438461      -0.14224645      -0.08211636       0.00000273 
Ti       7.21478658       0.84520541      10.47438461      -0.14224642      -0.08211639       0.00000003 
Ti      12.96563445       0.84520541      10.47438461      -0.14224643      -0.08211641       0.00000278 
Ti      -1.41148522       5.82558576      10.47438461      -0.14224572      -0.08211619      -0.00008934 
Ti       4.33936264       5.82558576      10.47438461      -0.14224642      -0.08211639       0.00000003 
Ti      10.09021051       5.82558576      10.47438461      -0.14224642      -0.08211639       0.00000003 
Ti      -4.28690916      10.80596611      10.47438461      -0.14224642      -0.08211639       0.00000003 
Ti       1.46393871      10.80596611      10.47438461      -0.14224642      -0.08211639       0.00000003 
Ti       7.21478658      10.80596611      10.47438461      -0.14224642      -0.08211639       0.00000003 
Ti       4.28690916       0.84520541       1.16382051       0.14220475      -0.08209675       0.00005360 
Ti      10.03775703       0.84520541       1.16382051       0.14215789      -0.08220122      -0.00002585 
Ti      15.78860490       0.84520541       1.16382051       0.14238620      -0.08146634       0.00059653 
Ti       1.41148523       5.82558576       1.16382051       0.14270808      -0.08203881      -0.00021792 
Ti       7.16233310       5.82558576       1.16382051       0.14224498      -0.08212548      -0.00000082 
Ti      12.91318097       5.82558576       1.16382051       0.14311877      -0.08246227       0.00066668 
Ti      -1.46393871      10.80596611       1.16382051       0.14227020      -0.08210398       0.00000797 
Ti       4.28690916      10.80596611       1.16382051       0.14224692      -0.08212507      -0.00000025 
Ti      10.03775703      10.80596611       1.16382051       0.14224561      -0.08212487      -0.00000054 
Ti       4.28690916       0.84520541       5.81910256       0.14211640      -0.08204581      -0.00005525 
Ti      10.03775703       0.84520541       5.81910256       0.14219991      -0.08216084       0.00002513 
Ti      15.78860490       0.84520541       5.81910256       0.14221509      -0.08288406       0.00038661 
Ti       1.41148523       5.82558576       5.81910256       0.14383814      -0.08118728       0.00119429 
Ti       7.16233310       5.82558576       5.81910256       0.14224637      -0.08212576       0.00000088 
Ti      12.91318097       5.82558576       5.81910256       0.14263602      -0.08218318       0.00008151 
Ti      -1.46393871      10.80596611       5.81910256       0.14225652      -0.08215935      -0.00000867 
Ti       4.28690916      10.80596611       5.81910256       0.14224737      -0.08212535       0.00000031 
Ti      10.03775703      10.80596611       5.81910256       0.14224653      -0.08212592       0.00000060 
Ti       4.28690916       0.84520541      10.47438461       0.14224680      -0.08212623       0.00000003 
Ti      10.03775703       0.84520541      10.47438461       0.14224680      -0.08212623       0.00000003 
Ti      15.78860490       0.84520541      10.47438461       0.14224687      -0.08212620       0.00001514 
Ti       1.41148523       5.82558576      10.47438461       0.14224650      -0.08212647       0.00001511 
Ti       7.16233310       5.82558576      10.47438461       0.14224680      -0.08212623       0.00000003 
Ti      12.91318097       5.82558576      10.47438461       0.14224657      -0.08212607       0.00001401 
Ti      -1.46393871      10.80596611      10.47438461       0.14224680      -0.08212623       0.00000003 
Ti       4.28690916      10.80596611      10.47438461       0.14224680      -0.08212623       0.00000003 
Ti      10.03775703      10.80596611      10.47438461       0.14224680      -0.08212623       0.00000003 
Ti       0.00000000       1.69041082       3.49146154      -0.00247528      -0.15908016       0.00016881 
Ti       5.75084787       1.69041082       3.49146154      -0.00004736      -0.16424318      -0.00000189 
Ti      11.50169574       1.69041082       3.49146154      -0.00040841      -0.16466467       0.00013151 
Ti      -2.87542393       6.67079117       3.49146154      -0.00214774      -0.15942384       0.00052607 
Ti       2.87542394       6.67079117       3.49146154      -0.00042647      -0.16466031       0.00012838 
Ti       8.62627180       6.67079117       3.49146154      -0.00003443      -0.16424107      -0.00000102 
Ti      -5.75084787      11.65117152       3.49146154       0.00000803      -0.16424426       0.00000025 
Ti       0.00000000      11.65117152       3.49146154       0.00000886      -0.16426577      -0.00000101 
Ti       5.75084787      11.65117152       3.49146154       0.00000801      -0.16427547      -0.00000195 
Ti       0.00000000       1.69041082       8.14674359      -0.00004801      -0.16412706      -0.00022185 
Ti       5.75084787       1.69041082       8.14674359       0.00001259      -0.16424913       0.00000330 
Ti      11.50169574       1.69041082       8.14674359       0.00001099      -0.16425690       0.00001748 
Ti      -2.87542393       6.67079117       8.14674359       0.00015637      -0.16438695      -0.00016231 
Ti       2.87542394       6.67079117       8.14674359      -0.00007917      -0.16431338      -0.00009880 
Ti       8.62627180       6.67079117       8.14674359       0.00000872      -0.16424685      -0.00000013 
Ti      -5.75084787      11.65117152       8.14674359       0.00000861      -0.16424796       0.00000028 
Ti       0.00000000      11.65117152       8.14674359       0.00000821      -0.16424512       0.00000141 
Ti       5.75084787      11.65117152       8.14674359       0.00000771      -0.16424869       0.00000081 
Ti       0.00000000       1.69041082      12.80202564       0.00013562      -0.16433748      -0.00010959 
Ti       5.75084787       1.69041082      12.80202564       0.00000989      -0.16424799      -0.00000128 
Ti      11.50169574       1.69041082      12.80202564      -0.00006148      -0.16431335      -0.00011425 
Ti      -2.87542393       6.67079117      12.80202564      -0.00006489      -0.16400491      -0.00043380 
Ti       2.87542394       6.67079117      12.80202564       0.00001142      -0.16424499       0.00000439 
Ti       8.62627180       6.67079117      12.80202564       0.00001122      -0.16424666       0.00000124 
Ti      -5.75084787      11.65117152      12.80202564       0.00000775      -0.16424663      -0.00000060 
Ti       0.00000000      11.65117152      12.80202564       0.00000892      -0.16424680      -0.00000031 
Ti       5.75084787      11.65117152      12.80202564       0.00000866      -0.16424488       0.00000128 
Al      -0.00000288       3.32025523       1.16382051       0.00152608      -0.00073582      -0.00203886 
Al       5.75084499       3.32025523       1.16382051      -0.00001861      -0.00001023       0.00001825 
Al      11.50169286       3.32025523       1.16382051      -0.00076369      -0.00013823      -0.00040182 
Al      -2.87542681       8.30063558       1.16382051       0.00001168       0.00039376      -0.00012490 
Al       2.87542106       8.30063558       1.16382051      -0.00004197      -0.00007810       0.00007477 
Al       8.62626893       8.30063558       1.16382051       0.00001095      -0.00000630      -0.00000417 
Al      -5.75085075      13.28101593       1.16382051       0.00001096       0.00000796       0.00001189 
Al      -0.00000288      13.28101593       1.16382051       0.00001883      -0.00001126      -0.00000006 
Al       5.75084499      13.28101593       1.16382051       0.00002180      -0.00014739      -0.00004851 
Al      -0.00000288       3.32025523       5.81910256      -0.00766707       0.00454347      -0.01277882 
Al       5.75084499       3.32025523       5.81910256      -0.00003108      -0.00000932      -0.00001813 
Al      11.50169286       3.32025523       5.81910256      -0.00023966      -0.00005273       0.00030085 
Al      -2.87542681       8.30063558       5.81910256       0.00019943      -0.00010487       0.00002208 
Al       2.87542106       8.30063558       5.81910256      -0.00010970      -0.00013835      -0.00007440 
Al       8.62626893       8.30063558       5.81910256       0.00001330      -0.00000766       0.00000425 
Al      -5.75085075      13.28101593       5.81910256       0.00000386       0.00001840      -0.00001177 
Al      -0.00000288      13.28101593       5.81910256       0.00001899      -0.00001134       0.00000013 
Al       5.75084499      13.28101593       5.81910256       0.00004004      -0.00005796       0.00004888 
Al      -0.00000288       3.32025523      10.47438461       0.00001927      -0.00001113      -0.00015223 
Al       5.75084499       3.32025523      10.47438461       0.00001914      -0.00001104       0.00000004 
Al      11.50169286       3.32025523      10.47438461       0.00001913      -0.00001104      -0.00000280 
Al      -2.87542681       8.30063558      10.47438461       0.00001914      -0.00001103      -0.00000274 
Al       2.87542106       8.30063558      10.47438461       0.00001914      -0.00001104       0.00000004 
Al       8.62626893       8.30063558      10.47438461       0.00001914      -0.00001104       0.00000004 
Al      -5.75085075      13.28101593      10.47438461       0.00001914      -0.00001104       0.00000004 
Al      -0.00000288      13.28101593      10.47438461       0.00001914      -0.00001104       0.00000004 
Al       5.75084499      13.28101593      10.47438461       0.00001914      -0.00001104       0.00000004 
Al       2.87542681       1.66012512       3.49146154      -0.00059174       0.00041238       0.00018498 
Al       8.62627468       1.66012512       3.49146154      -0.00006544      -0.00000935       0.00000421 
Al      14.37712255       1.66012512       3.49146154      -0.00317398      -0.00543089       0.00006724 
Al       0.00000288       6.64050547       3.49146154      -0.00270976      -0.00477796       0.00004176 
Al       5.75085075       6.64050547       3.49146154      -0.00005426      -0.00000196       0.00000125 
Al      11.50169861       6.64050547       3.49146154      -0.00050519       0.00036420       0.00009037 
Al      -2.87542106      11.62088582       3.49146154      -0.00001906       0.00002910       0.00000411 
Al       2.87542681      11.62088582       3.49146154      -0.00001926       0.00001027       0.00000015 
Al       8.62627468      11.62088582       3.49146154      -0.00001892       0.00002341       0.00000126 
Al       2.87542681       1.66012512       8.14674359      -0.00018856       0.00011256      -0.00016114 
Al       8.62627468       1.66012512       8.14674359      -0.00002238       0.00000916       0.00000261 
Al      14.37712255       1.66012512       8.14674359       0.00017262       0.00013858      -0.00012621 
Al       0.00000288       6.64050547       8.14674359      -0.00005066      -0.00023363      -0.00030602 
Al       5.75085075       6.64050547       8.14674359      -0.00002208       0.00001029      -0.00000169 
Al      11.50169861       6.64050547       8.14674359      -0.00000880       0.00001366       0.00000647 
Al      -2.87542106      11.62088582       8.14674359      -0.00001899       0.00001027      -0.00000057 
Al       2.87542681      11.62088582       8.14674359      -0.00001920       0.00001087      -0.00000009 
Al       8.62627468      11.62088582       8.14674359      -0.00001939       0.00001229      -0.00000074 
Al       2.87542681       1.66012512      12.80202564       0.00000375       0.00000161      -0.00000729 
Al       8.62627468       1.66012512      12.80202564      -0.00002768       0.00000624      -0.00000693 
Al      14.37712255       1.66012512      12.80202564      -0.00005315      -0.00013466      -0.00025311 
Al       0.00000288       6.64050547      12.80202564       0.00007282       0.00009870      -0.00007244 
Al       5.75085075       6.64050547      12.80202564      -0.00001973       0.00001084       0.00000033 
Al      11.50169861       6.64050547      12.80202564      -0.00008563       0.00005824      -0.00008542 
Al      -2.87542106      11.62088582      12.80202564      -0.00001911       0.00001618      -0.00000364 
Al       2.87542681      11.62088582      12.80202564      -0.00001915       0.00001083      -0.00000017 
Al       8.62627468      11.62088582      12.80202564      -0.00001868       0.00000995      -0.00000064 
