2
Lattice="3.1677572652937673 -3.540459895345381e-08 3.91766683191399e-08 -3.540459895345381e-08 3.167757209572845 -3.540459914156586e-08 3.91766683191399e-08 -3.540459914156586e-08 3.1677572989556837" Properties=species:S:1:pos:R:3 pbc="T T T" n_minim_iter=3
Ti       0.00000000       0.00000000       0.00000000 
Ti       1.58387863       1.58387857       1.58387865 
