2
Lattice="3.202513795385336 -3.3008690227790477e-18 -1.4769781852411606e-18 -3.3008690227790477e-18 3.202513795385336 1.773463105480755e-17 -1.4769781852411606e-18 1.773463105480755e-17 3.202513795385336" Properties=species:S:1:pos:R:3 energy=-3187.12347631 pbc="T T T" n_minim_iter=0
Ti       0.00000000      -0.00000000      -0.00000000 
Ti       1.60125690       1.60125690       1.60125690 
