2
Lattice="2.8858259999542515 -2.974455148984984e-18 -1.330923868142568e-18 -2.974455148984984e-18 2.8858259999542515 1.598090208738717e-17 -1.330923868142568e-18 1.598090208738717e-17 2.8858259999542515" Properties=species:S:1:pos:R:3 energy=-3186.01501407 pbc="T T T" n_minim_iter=0
Ti       0.00000000      -0.00000000      -0.00000000 
Ti       1.44291300       1.44291300       1.44291300 
