2
Lattice="3.3985611117065724 -3.502937321243903e-18 -1.5673939111308598e-18 -3.502937321243903e-18 3.3985611117065724 1.8820286588673546e-17 -1.5673939111308598e-18 1.8820286588673546e-17 3.3985611117065724" Properties=species:S:1:pos:R:3 energy=-3186.66410132 pbc="T T T" n_minim_iter=0
Ti       0.00000000      -0.00000000      -0.00000000 
Ti       1.69928056       1.69928056       1.69928056 
