2
Lattice="2.5353796458898956 3.4815151644819327e-09 -1.5197079777801872e-07 3.481515164481933e-09 2.535380752026557 -1.4532053551885936e-07 -2.1491916330233311e-07 -2.05514272222092e-07 3.587136435628762" Properties=species:S:1:pos:R:3 pbc="T T T" n_minim_iter=0
Ni       0.00000000       0.00000000       0.00000000 
Ni       1.26768972       1.26769027       1.79356807 
