2
Lattice="2.399635387815547 3.2951147988627955e-09 -1.438342793568876e-07 3.295114798862796e-09 2.399636434729638 -1.3754007222258215e-07 -2.0341238860067095e-07 -1.9451103550695068e-07 3.395081105826277" Properties=species:S:1:pos:R:3 pbc="T T T" n_minim_iter=0
Ni       0.00000000       0.00000000       0.00000000 
Ni       1.19981759       1.19981812       1.69754041 
