2
Lattice="2.4399729282417093 3.350505224876212e-09 -1.4625211378610395e-07 3.3505052248762124e-09 2.4399739927542816 -1.3985210189661783e-07 -2.068317228420413e-07 -1.9778073922858097e-07 3.452151951693838" Properties=species:S:1:pos:R:3 pbc="T T T" n_minim_iter=0
Ni       0.00000000       0.00000000       0.00000000 
Ni       1.21998636       1.21998690       1.72607583 
