2
Lattice="2.5168725653249924 3.456101739024545e-09 -1.5086148233386036e-07 3.4561017390245456e-09 2.5168736633873756 -1.4425976386561117e-07 -2.133503543562544e-07 -2.0401411456348746e-07 3.5609520245015753" Properties=species:S:1:pos:R:3 pbc="T T T" n_minim_iter=0
Ni       0.00000000       0.00000000       0.00000000 
Ni       1.25843618       1.25843673       1.78047586 
