2
Lattice="2.2465032351818497 3.0848378439190897e-09 -1.3465552956336698e-07 3.08483784391909e-09 2.246504215287371 -1.2876298573695098e-07 -1.9043167615704484e-07 -1.820983607608495e-07 3.178424825150884" Properties=species:S:1:pos:R:3 pbc="T T T" n_minim_iter=0
Ni       0.00000000       0.00000000       0.00000000 
Ni       1.12325152       1.12325202       1.58921228 
