4
Lattice="3.8619575384225184 0.0 0.0 0.0 3.8619575384225184 0.0 0.0 0.0 3.8619575384225184" Properties=species:S:1:pos:R:3 pbc="T T T" n_minim_iter=0
Al       0.00000000       0.00000000       0.00000000 
Al       1.93097877       1.93097877       0.00000000 
Al       1.93097877       0.00000000       1.93097877 
Al       0.00000000       1.93097877       1.93097877 
