4
Lattice="4.033059350436209 0.0 0.0 0.0 4.033059350436209 0.0 0.0 0.0 4.033059350436209" Properties=species:S:1:pos:R:3 pbc="T T T" n_minim_iter=0
Al       0.00000000       0.00000000       0.00000000 
Al       2.01652968       2.01652968       0.00000000 
Al       2.01652968       0.00000000       2.01652968 
Al       0.00000000       2.01652968       2.01652968 
