2
Lattice="2.95 0.0 0.0 -1.4749999999999994 2.5547749411640948 0.0 0.0 0.0 4.6846000000000005" Properties=species:S:1:pos:R:3 energy=-3187.17617058 pbc="T T T" n_minim_iter=1
Ti       0.00000000       0.00000000       0.00000000 
Ti       0.00000000       1.70318329       2.34230000 
2
Lattice="2.8348009533044185 -1.483922761951783e-14 -1.0025957139524885e-12 -1.4174004766522215 2.4550096407267814 1.6596293679121885e-12 -1.592121993756552e-12 2.1239913186474262e-12 4.449854299488597" Properties=species:S:1:pos:R:3 stress="-0.04655949486727848 4.055329061950596e-12 -6.1240241768247915e-12 4.055329061950596e-12 -0.04655949510964966 -1.2713007245522013e-12 -6.1240241768247915e-12 -1.2713007245522013e-12 -0.035169406061711206" pbc="T T T" n_minim_iter=2
Ti       0.00000000      -0.00000000       0.00000000 
Ti      -0.00000000       1.63667309       2.22492715 
2
Lattice="2.8852536298218148 -4.535573656104198e-12 5.744661337216627e-12 -1.4426268149148347 2.498702940529126 -4.68388204445189e-13 9.122522203500008e-12 4.408023848271821e-12 4.5087115772535045" Properties=species:S:1:pos:R:3 stress="-0.0023699710644560917 7.974626559912764e-13 -1.6014704457521223e-12 7.974626559912764e-13 -0.002369971250514474 -5.56285190241257e-13 -1.6014704457521223e-12 -5.56285190241257e-13 0.007879039719615101" pbc="T T T" n_minim_iter=3
Ti       0.00000000      -0.00000000      -0.00000000 
Ti       0.00000000       1.66580196       2.25435579 
