2
Lattice="2.9090997825332203 -4.573059435835794e-12 5.7921400302877226e-12 -1.4545498912705699 2.5193543145658603 -4.72259356892924e-13 9.197918368096909e-12 4.444455449554617e-12 4.545975346265558" Properties=species:S:1:pos:R:3 energy=-3187.26761739 pbc="T T T" n_minim_iter=0
Ti       0.00000000      -0.00000000      -0.00000000 
Ti       0.00000000       1.67956954       2.27298767 
