2
Lattice="2.7060468559176423 -4.253863405638148e-12 5.387853112534418e-12 -1.3530234279625042 2.343505321751761 -4.392960171290347e-13 8.555910742704662e-12 4.134235878653971e-12 4.228669764681937" Properties=species:S:1:pos:R:3 energy=-3186.80930599 pbc="T T T" n_minim_iter=0
Ti       0.00000000      -0.00000000      -0.00000000 
Ti       0.00000000       1.56233688       2.11433488 
