2
Lattice="3.0445979568753705 -4.7860604502507466e-12 6.061922594760177e-12 -1.5222989784418297 2.6366991757474296 -4.942559487799397e-13 9.626333080479169e-12 4.6514664304001304e-12 4.757714855416058" Properties=species:S:1:pos:R:3 energy=-3186.93913676 pbc="T T T" n_minim_iter=0
Ti       0.00000000      -0.00000000      -0.00000000 
Ti       0.00000000       1.75779945       2.37885743 
