2
Lattice="2.5822131421611174 -3.784518369796288e-07 8.034706277002309e-16 -1.291106898829462 2.2362619922328175 1.438091826371182e-15 1.2707580079758988e-15 3.378689506083132e-15 4.175673055667425" Properties=species:S:1:pos:R:3 energy=-3185.30896472 pbc="T T T" n_minim_iter=0
Ti      -0.00000008       0.00000005      -0.00000000 
Ti      -0.00000143       1.49084190       2.08783653 
