2
Lattice="3.0164218899139263 -1.081889962717535e-07 2.1892890705745053e-16 -1.5082110386513807 2.612297931777422 -1.785078960497573e-16 3.4677027160492505e-16 -1.262788316862015e-16 4.7940553289385965" Properties=species:S:1:pos:R:3 energy=-3186.8832992 pbc="T T T" n_minim_iter=0
Ti      -0.00000010       0.00000005      -0.00000000 
Ti      -0.00000148       1.74153273       2.39702766 
