2
Lattice="2.973014100845715 -1.0663210360187575e-07 2.157784128078696e-16 -1.4865071427689664 2.5747056844909677 -1.7593907995521582e-16 3.4178007747615134e-16 -1.2446161742053682e-16 4.725066523627334" Properties=species:S:1:pos:R:3 energy=-3187.01774626 pbc="T T T" n_minim_iter=0
Ti      -0.00000009       0.00000005      -0.00000000 
Ti      -0.00000145       1.71647122       2.36253326 
