2
Lattice="2.6383657163848793 -3.8668161651220914e-07 8.209428275438078e-16 -1.319183193068541 2.284891543934942 1.4693644415950782e-15 1.2983917970687643e-15 3.4521621835208255e-15 4.266476865532744" Properties=species:S:1:pos:R:3 energy=-3186.03801058 pbc="T T T" n_minim_iter=0
Ti      -0.00000009       0.00000005      -0.00000000 
Ti      -0.00000146       1.52326161       2.13323843 
