2
Lattice="2.9399834454199363 -5.211842538461907e-14 -2.68784416619343e-13 -1.4699917227100123 2.546100350789239 6.071800181691657e-14 -4.268296535915168e-13 -1.350937736921349e-13 4.632937941545991" Properties=species:S:1:pos:R:3 energy=-3187.20755514 pbc="T T T" n_minim_iter=0
Ti       0.00000000      -0.00000000       0.00000000 
Ti      -0.00000000       1.69740023       2.31646897 
