2
Lattice="2.8213043078544264 -5.001454626735572e-14 -2.5793432057369133e-13 -1.410652153927256 2.443321202744156 5.82669811822397e-14 -4.09599701071022e-13 -1.2964040538244955e-13 4.445918834294294" Properties=species:S:1:pos:R:3 energy=-3187.23673501 pbc="T T T" n_minim_iter=0
Ti       0.00000000      -0.00000000       0.00000000 
Ti      -0.00000000       1.62888080       2.22295942 
