2
Lattice="2.7450151638674374 -4.866213387036196e-14 -2.50959678218859e-13 -1.3725075819337604 2.377252866009376 5.669141979925669e-14 -3.985239690115482e-13 -1.2613487940100208e-13 4.325699494196988" Properties=species:S:1:pos:R:3 energy=-3187.02587001 pbc="T T T" n_minim_iter=0
Ti       0.00000000      -0.00000000       0.00000000 
Ti      -0.00000000       1.58483524       2.16284975 
