2
Lattice="2.7709130628049774 -4.9121237718547677e-14 -2.5332736218267095e-13 -1.3854565314025309 2.39968110439701 5.722627610165987e-14 -4.022838511460816e-13 -1.273249013732755e-13 4.366510390183825" Properties=species:S:1:pos:R:3 energy=-3187.11939992 pbc="T T T" n_minim_iter=0
Ti       0.00000000      -0.00000000       0.00000000 
Ti      -0.00000000       1.59978740       2.18325520 
